<?xml version="1.0" encoding="UTF-8"?>

<!-- generated on 2025-04-12 18:59:47 by Eclipse SUMO sumo Version 1.22.0
-->

<sumoConfiguration xmlns:xsi="http://www.w3.org/2001/XMLSchema-instance" xsi:noNamespaceSchemaLocation="http://sumo.dlr.de/xsd/sumoConfiguration.xsd">

    <input>
       <net-file value="cleaned.net.xml"/>
        <route-files value="osm.cleaned.passenger.rou.xml,osm.cleaned.bus.rou.xml"/>
        <additional-files value="osm.poly.xml.gz"/>
    </input>


    <time>
        <begin value="0"/>
        <end value="1000"/> <!-- Run for 1000 seconds -->
    </time>

    <processing>
        <ignore-route-errors value="true"/>
        <tls.actuated.jam-threshold value="30"/>
    </processing>

    <routing>
        <device.rerouting.adaptation-steps value="18"/>
        <device.rerouting.adaptation-interval value="10"/>
    </routing>

    <report>
        <verbose value="true"/>
        <duration-log.statistics value="true"/>
        <no-step-log value="true"/>
    </report>

    <gui_only>
        <gui-settings-file value="osm.view.xml"/>
    </gui_only>

</sumoConfiguration>
