<?xml version="1.0" encoding="UTF-8"?>

<!-- generated on 2025-04-18 18:12:48 by Eclipse SUMO netconvert Version 1.22.0
<netconvertConfiguration xmlns:xsi="http://www.w3.org/2001/XMLSchema-instance" xsi:noNamespaceSchemaLocation="http://sumo.dlr.de/xsd/netconvertConfiguration.xsd">

    <input>
        <sumo-net-file value="osm.net.xml.gz"/>
    </input>

    <output>
        <output-file value="osm.net.xml"/>
        <output.street-names value="true"/>
    </output>

    <processing>
        <geometry.min-radius.fix.railways value="false"/>
        <geometry.max-grade.fix value="false"/>
        <offset.disable-normalization value="true"/>
        <lefthand value="1"/>
    </processing>

    <junctions>
        <no-turnarounds value="true"/>
        <junctions.corner-detail value="5"/>
        <junctions.limit-turn-speed value="5.50"/>
        <rectangular-lane-cut value="0"/>
    </junctions>

    <pedestrian>
        <walkingareas value="0"/>
    </pedestrian>

</netconvertConfiguration>
-->

<net version="1.20" junctionCornerDetail="5" lefthand="true" limitTurnSpeed="5.50" xmlns:xsi="http://www.w3.org/2001/XMLSchema-instance" xsi:noNamespaceSchemaLocation="http://sumo.dlr.de/xsd/net_file.xsd">

    <location netOffset="-621300.78,-5867417.54" convBoundary="0.00,0.00,1222.28,606.79" origBoundary="-1.194736,52.942603,-1.176540,52.947901" projParameter="+proj=utm +zone=30 +ellps=WGS84 +datum=WGS84 +units=m +no_defs"/>

    <type id="highway.primary" priority="12" numLanes="2" speed="27.78" disallow="tram rail_urban rail rail_electric rail_fast ship container cable_car subway aircraft wheelchair scooter drone" oneway="0"/>
    <type id="highway.residential" priority="3" numLanes="1" speed="13.89" disallow="tram rail_urban rail rail_electric rail_fast ship container cable_car subway aircraft wheelchair scooter drone" oneway="0"/>
    <type id="highway.tertiary" priority="10" numLanes="1" speed="22.22" disallow="tram rail_urban rail rail_electric rail_fast ship container cable_car subway aircraft wheelchair scooter drone" oneway="0"/>
    <type id="highway.trunk" priority="13" numLanes="2" speed="27.78" disallow="pedestrian bicycle tram rail_urban rail rail_electric rail_fast ship container cable_car subway aircraft wheelchair scooter drone" oneway="0"/>
    <type id="highway.trunk_link" priority="8" numLanes="1" speed="22.22" disallow="pedestrian bicycle tram rail_urban rail rail_electric rail_fast ship container cable_car subway aircraft wheelchair scooter drone" oneway="0"/>
    <type id="highway.unclassified" priority="4" numLanes="1" speed="13.89" disallow="tram rail_urban rail rail_electric rail_fast ship container cable_car subway aircraft wheelchair scooter drone" oneway="0"/>

    <edge id=":1073057214_0" function="internal">
        <lane id=":1073057214_0_0" index="0" disallow="tram rail_urban rail rail_electric rail_fast ship container cable_car subway aircraft wheelchair scooter drone" speed="2.89" length="2.92" width="2.00" shape="2.89,566.26 2.25,566.89 2.10,567.43 2.44,567.87 3.27,568.22"/>
    </edge>
    <edge id=":11077739201_0" function="internal">
        <lane id=":11077739201_0_0" index="0" disallow="tram rail_urban rail rail_electric rail_fast ship container cable_car subway aircraft wheelchair scooter drone" speed="8.94" length="3.18" width="4.00" shape="228.36,543.49 229.24,543.25 229.79,542.85 230.34,542.46 231.22,542.23"/>
    </edge>
    <edge id=":11077739201_1" function="internal">
        <lane id=":11077739201_1_0" index="0" disallow="tram rail_urban rail rail_electric rail_fast ship container cable_car subway aircraft wheelchair scooter drone" speed="2.89" length="2.92" width="2.00" shape="228.36,543.49 229.05,542.92 229.25,542.40 228.95,541.93 228.16,541.50"/>
    </edge>
    <edge id=":11079146654_0" function="internal">
        <lane id=":11079146654_0_0" index="0" disallow="tram rail_urban rail rail_electric rail_fast ship container cable_car subway aircraft wheelchair scooter drone" speed="11.18" length="3.18" shape="1031.93,216.67 1032.91,213.65"/>
    </edge>
    <edge id=":11079146655_0" function="internal">
        <lane id=":11079146655_0_0" index="0" disallow="tram rail_urban rail rail_electric rail_fast ship container cable_car subway aircraft wheelchair scooter drone" speed="11.18" length="0.30" shape="1035.45,220.28 1035.71,220.12"/>
    </edge>
    <edge id=":11089098278_0" function="internal">
        <lane id=":11089098278_0_0" index="0" disallow="tram rail_urban rail rail_electric rail_fast ship container cable_car subway aircraft wheelchair scooter drone" speed="15.64" length="0.58" shape="356.35,227.93 356.27,227.89 356.22,227.86 356.18,227.83 356.11,227.78"/>
        <lane id=":11089098278_0_1" index="1" disallow="tram rail_urban rail rail_electric rail_fast ship container cable_car subway aircraft wheelchair scooter drone" speed="15.64" length="0.58" shape="354.88,230.77 354.66,230.66 354.50,230.57 354.36,230.47 354.15,230.31"/>
    </edge>
    <edge id=":11094318498_0" function="internal">
        <lane id=":11094318498_0_0" index="0" disallow="pedestrian bicycle tram rail_urban rail rail_electric rail_fast ship container cable_car subway aircraft wheelchair scooter drone" speed="17.88" length="9.22" shape="61.75,228.53 58.94,228.27 57.08,226.50 55.21,224.74 52.33,224.50"/>
        <lane id=":11094318498_0_1" index="1" disallow="pedestrian bicycle tram rail_urban rail rail_electric rail_fast ship container cable_car subway aircraft wheelchair scooter drone" speed="17.88" length="9.22" shape="61.75,228.53 59.24,228.71 57.47,228.06 55.69,227.41 53.19,227.58"/>
        <lane id=":11094318498_0_2" index="2" disallow="pedestrian bicycle tram rail_urban rail rail_electric rail_fast ship container cable_car subway aircraft wheelchair scooter drone" speed="17.88" length="9.22" shape="61.75,228.53 54.04,230.66"/>
    </edge>
    <edge id=":11094318498_3" function="internal">
        <lane id=":11094318498_3_0" index="0" disallow="pedestrian bicycle tram rail_urban rail rail_electric rail_fast ship container cable_car subway aircraft wheelchair scooter drone" speed="17.88" length="8.40" shape="54.89,233.75 57.40,233.57 59.17,234.22 60.95,234.87 63.45,234.70"/>
        <lane id=":11094318498_3_1" index="1" disallow="pedestrian bicycle tram rail_urban rail rail_electric rail_fast ship container cable_car subway aircraft wheelchair scooter drone" speed="17.88" length="8.40" shape="54.89,233.75 62.60,231.62"/>
    </edge>
    <edge id=":11094318499_0" function="internal">
        <lane id=":11094318499_0_0" index="0" disallow="pedestrian bicycle tram rail_urban rail rail_electric rail_fast ship container cable_car subway aircraft wheelchair scooter drone" speed="17.88" length="8.81" shape="79.51,220.30 77.28,221.44 76.09,222.91 74.90,224.38 72.66,225.51"/>
    </edge>
    <edge id=":11094318499_1" function="internal">
        <lane id=":11094318499_1_0" index="0" disallow="pedestrian bicycle tram rail_urban rail rail_electric rail_fast ship container cable_car subway aircraft wheelchair scooter drone" speed="17.88" length="8.00" shape="74.36,231.68 82.08,229.55"/>
        <lane id=":11094318499_1_1" index="1" disallow="pedestrian bicycle tram rail_urban rail rail_electric rail_fast ship container cable_car subway aircraft wheelchair scooter drone" speed="17.88" length="8.00" shape="73.51,228.60 81.22,226.47"/>
    </edge>
    <edge id=":112147003_0" function="internal">
        <lane id=":112147003_0_0" index="0" disallow="tram rail_urban rail rail_electric rail_fast ship container cable_car subway aircraft wheelchair scooter drone" speed="8.94" length="9.01" shape="286.24,76.52 283.74,75.58 282.05,74.88 280.40,74.08 278.02,72.86"/>
    </edge>
    <edge id=":112147003_1" function="internal">
        <lane id=":112147003_1_0" index="0" disallow="tram rail_urban rail rail_electric rail_fast ship container cable_car subway aircraft wheelchair scooter drone" speed="3.65" length="4.67" shape="286.24,76.52 284.84,76.86 284.19,77.47 284.29,78.36 285.14,79.52"/>
    </edge>
    <edge id=":112147003_2" function="internal">
        <lane id=":112147003_2_0" index="0" disallow="tram rail_urban rail rail_electric rail_fast ship container cable_car subway aircraft wheelchair scooter drone" speed="7.80" length="11.71" shape="279.63,83.54 280.53,79.69 280.57,76.63 279.73,74.35 278.02,72.86"/>
    </edge>
    <edge id=":112147003_3" function="internal">
        <lane id=":112147003_3_0" index="0" disallow="tram rail_urban rail rail_electric rail_fast ship container cable_car subway aircraft wheelchair scooter drone" speed="8.94" length="9.39" shape="276.56,75.71 279.05,76.98 280.77,77.81 282.53,78.55 285.14,79.52"/>
    </edge>
    <edge id=":112147003_4" function="internal">
        <lane id=":112147003_4_0" index="0" disallow="tram rail_urban rail rail_electric rail_fast ship container cable_car subway aircraft wheelchair scooter drone" speed="3.65" length="4.67" shape="276.56,75.71 278.00,75.55 278.72,75.02 278.73,74.12 278.02,72.86"/>
    </edge>
    <edge id=":112203708_0" function="internal">
        <lane id=":112203708_0_0" index="0" disallow="tram rail_urban rail rail_electric rail_fast ship container cable_car subway aircraft wheelchair scooter drone" speed="3.65" length="4.67" shape="1120.54,55.19 1121.69,54.32 1122.05,53.50 1121.61,52.73 1120.36,51.99"/>
    </edge>
    <edge id=":112204497_0" function="internal">
        <lane id=":112204497_0_0" index="0" disallow="tram rail_urban rail rail_electric rail_fast ship container cable_car subway aircraft wheelchair scooter drone" speed="3.65" length="4.67" shape="1095.78,81.32 1094.73,80.33 1093.86,80.12 1093.17,80.69 1092.66,82.04"/>
    </edge>
    <edge id=":112205012_0" function="internal">
        <lane id=":112205012_0_0" index="0" disallow="tram rail_urban rail rail_electric rail_fast ship container cable_car subway aircraft wheelchair scooter drone" speed="6.49" length="9.15" shape="1106.01,99.73 1103.48,100.03 1101.49,99.45 1100.04,98.01 1099.13,95.70"/>
    </edge>
    <edge id=":112205012_1" function="internal">
        <lane id=":112205012_1_0" index="0" disallow="tram rail_urban rail rail_electric rail_fast ship container cable_car subway aircraft wheelchair scooter drone" speed="8.17" length="14.33" shape="1106.01,99.73 1102.33,101.25 1099.96,103.53 1098.90,106.58 1099.15,110.41"/>
    </edge>
    <edge id=":112205012_2" function="internal">
        <lane id=":112205012_2_0" index="0" disallow="tram rail_urban rail rail_electric rail_fast ship container cable_car subway aircraft wheelchair scooter drone" speed="3.66" length="4.69" shape="1106.01,99.73 1105.14,100.89 1105.04,101.78 1105.68,102.40 1107.09,102.76"/>
    </edge>
    <edge id=":112205012_3" function="internal">
        <lane id=":112205012_3_0" index="0" disallow="tram rail_urban rail rail_electric rail_fast ship container cable_car subway aircraft wheelchair scooter drone" speed="6.79" length="9.57" shape="1102.28,109.74 1102.14,107.27 1102.90,105.28 1104.55,103.78 1107.09,102.76"/>
    </edge>
    <edge id=":112205012_4" function="internal">
        <lane id=":112205012_4_0" index="0" disallow="tram rail_urban rail rail_electric rail_fast ship container cable_car subway aircraft wheelchair scooter drone" speed="8.94" length="14.39" shape="1102.28,109.74 1099.13,95.70"/>
    </edge>
    <edge id=":112205012_5" function="internal">
        <lane id=":112205012_5_0" index="0" disallow="tram rail_urban rail rail_electric rail_fast ship container cable_car subway aircraft wheelchair scooter drone" speed="3.65" length="4.67" shape="1102.28,109.74 1101.24,108.73 1100.38,108.51 1099.68,109.06 1099.15,110.41"/>
    </edge>
    <edge id=":112205012_6" function="internal">
        <lane id=":112205012_6_0" index="0" disallow="tram rail_urban rail rail_electric rail_fast ship container cable_car subway aircraft wheelchair scooter drone" speed="8.94" length="14.33" shape="1096.02,96.42 1099.15,110.41"/>
    </edge>
    <edge id=":112205012_7" function="internal">
        <lane id=":112205012_7_0" index="0" disallow="tram rail_urban rail rail_electric rail_fast ship container cable_car subway aircraft wheelchair scooter drone" speed="8.04" length="14.63" shape="1096.02,96.42 1097.47,100.08 1099.80,102.36 1103.01,103.25 1107.09,102.76"/>
    </edge>
    <edge id=":112205012_8" function="internal">
        <lane id=":112205012_8_0" index="0" disallow="tram rail_urban rail rail_electric rail_fast ship container cable_car subway aircraft wheelchair scooter drone" speed="3.65" length="4.67" shape="1096.02,96.42 1097.07,97.41 1097.94,97.62 1098.63,97.05 1099.13,95.70"/>
    </edge>
    <edge id=":112212165_0" function="internal">
        <lane id=":112212165_0_0" index="0" disallow="tram rail_urban rail rail_electric rail_fast ship container cable_car subway aircraft wheelchair scooter drone" speed="11.18" length="0.98" shape="993.12,57.51 994.10,57.46"/>
    </edge>
    <edge id=":112212165_1" function="internal">
        <lane id=":112212165_1_0" index="0" disallow="tram rail_urban rail rail_electric rail_fast ship container cable_car subway aircraft wheelchair scooter drone" speed="11.18" length="0.99" shape="994.25,60.66 993.26,60.70"/>
    </edge>
    <edge id=":1145409790_0" function="internal">
        <lane id=":1145409790_0_0" index="0" allow="bus bicycle" speed="13.41" length="0.33" shape="718.54,523.36 718.21,523.27"/>
        <lane id=":1145409790_0_1" index="1" disallow="tram rail_urban rail rail_electric rail_fast ship container cable_car subway aircraft wheelchair scooter drone" speed="13.41" length="0.33" shape="717.70,526.45 717.40,526.37"/>
    </edge>
    <edge id=":1145409790_2" function="internal">
        <lane id=":1145409790_2_0" index="0" allow="bus bicycle" speed="13.41" length="0.27" shape="715.76,532.55 716.00,532.62"/>
        <lane id=":1145409790_2_1" index="1" disallow="tram rail_urban rail rail_electric rail_fast ship container cable_car subway aircraft wheelchair scooter drone" speed="13.41" length="0.27" shape="716.58,529.46 716.85,529.53"/>
    </edge>
    <edge id=":12356645#0-AddedOffRampNode_0" function="internal">
        <lane id=":12356645#0-AddedOffRampNode_0_0" index="0" disallow="tram rail_urban rail rail_electric rail_fast ship container cable_car subway aircraft wheelchair scooter drone" speed="8.94" length="8.43" shape="204.43,177.08 203.33,174.85 203.37,173.04 203.77,171.09 203.79,168.41"/>
        <lane id=":12356645#0-AddedOffRampNode_0_1" index="1" disallow="tram rail_urban rail rail_electric rail_fast ship container cable_car subway aircraft wheelchair scooter drone" speed="8.94" length="8.43" shape="204.43,177.08 202.98,175.23 201.96,173.93 201.27,172.50 200.81,170.26"/>
    </edge>
    <edge id=":12528215480_0" function="internal">
        <lane id=":12528215480_0_0" index="0" disallow="pedestrian bicycle tram rail_urban rail rail_electric rail_fast ship container cable_car subway aircraft wheelchair scooter drone" speed="9.61" length="4.44" shape="246.39,440.55 246.57,441.86 246.67,442.78 246.55,443.67 246.09,444.88"/>
    </edge>
    <edge id=":12528215480_1" function="internal">
        <lane id=":12528215480_1_0" index="0" disallow="pedestrian bicycle tram rail_urban rail rail_electric rail_fast ship container cable_car subway aircraft wheelchair scooter drone" speed="17.88" length="4.48" shape="249.57,440.21 249.86,444.67"/>
    </edge>
    <edge id=":138149157_0" function="internal">
        <lane id=":138149157_0_0" index="0" disallow="tram rail_urban rail rail_electric rail_fast ship container cable_car subway aircraft wheelchair scooter drone" speed="2.85" length="2.85" width="1.95" shape="319.93,250.18 319.06,250.33 318.64,250.67 318.66,251.22 319.13,251.96"/>
    </edge>
    <edge id=":138149162_0" function="internal">
        <lane id=":138149162_0_0" index="0" disallow="tram rail_urban rail rail_electric rail_fast ship container cable_car subway aircraft wheelchair scooter drone" speed="6.44" length="8.63" width="1.95" shape="500.25,380.90 498.26,381.95 496.35,382.06 494.52,381.26 492.75,379.53"/>
    </edge>
    <edge id=":138149162_1" function="internal">
        <lane id=":138149162_1_0" index="0" disallow="tram rail_urban rail rail_electric rail_fast ship container cable_car subway aircraft wheelchair scooter drone" speed="7.59" length="12.73" width="1.95" shape="500.25,380.90 498.14,383.16 497.39,385.78 498.00,388.76 499.97,392.10"/>
    </edge>
    <edge id=":138149162_2" function="internal">
        <lane id=":138149162_2_0" index="0" disallow="tram rail_urban rail rail_electric rail_fast ship container cable_car subway aircraft wheelchair scooter drone" speed="3.65" length="4.67" shape="500.25,380.90 499.76,382.26 499.92,383.14 500.71,383.55 502.15,383.47"/>
    </edge>
    <edge id=":138149162_3" function="internal">
        <lane id=":138149162_3_0" index="0" disallow="tram rail_urban rail rail_electric rail_fast ship container cable_car subway aircraft wheelchair scooter drone" speed="6.19" length="8.53" shape="501.53,390.92 500.30,388.78 500.00,386.82 500.62,385.05 502.15,383.47"/>
    </edge>
    <edge id=":138149162_4" function="internal">
        <lane id=":138149162_4_0" index="0" disallow="tram rail_urban rail rail_electric rail_fast ship container cable_car subway aircraft wheelchair scooter drone" speed="8.94" length="14.38" width="1.95" shape="501.53,390.92 492.75,379.53"/>
    </edge>
    <edge id=":138149162_5" function="internal">
        <lane id=":138149162_5_0" index="0" disallow="tram rail_urban rail rail_electric rail_fast ship container cable_car subway aircraft wheelchair scooter drone" speed="2.85" length="2.85" width="1.95" shape="501.53,390.92 500.70,390.63 500.16,390.73 499.92,391.22 499.97,392.10"/>
    </edge>
    <edge id=":138149162_6" function="internal">
        <lane id=":138149162_6_0" index="0" disallow="tram rail_urban rail rail_electric rail_fast ship container cable_car subway aircraft wheelchair scooter drone" speed="8.94" length="14.34" width="1.95" shape="491.22,380.74 499.97,392.10"/>
    </edge>
    <edge id=":138149162_7" function="internal">
        <lane id=":138149162_7_0" index="0" disallow="tram rail_urban rail rail_electric rail_fast ship container cable_car subway aircraft wheelchair scooter drone" speed="7.57" length="12.73" shape="491.22,380.74 493.93,383.48 496.65,384.85 499.40,384.85 502.15,383.47"/>
    </edge>
    <edge id=":138149162_8" function="internal">
        <lane id=":138149162_8_0" index="0" disallow="tram rail_urban rail rail_electric rail_fast ship container cable_car subway aircraft wheelchair scooter drone" speed="2.85" length="2.85" width="1.95" shape="491.22,380.74 492.06,381.01 492.59,380.90 492.82,380.41 492.75,379.53"/>
    </edge>
    <edge id=":138149164_0" function="internal">
        <lane id=":138149164_0_0" index="0" allow="bicycle" speed="7.01" length="10.60" width="1.95" shape="602.54,503.15 600.81,504.78 598.77,505.08 596.40,504.04 593.72,501.68"/>
    </edge>
    <edge id=":138149164_1" function="internal">
        <lane id=":138149164_1_0" index="0" disallow="tram rail_urban rail rail_electric rail_fast ship container cable_car subway aircraft wheelchair scooter drone" speed="8.94" length="12.40" width="4.12" shape="602.54,503.15 600.91,506.04 599.94,508.72 599.13,511.48 597.99,514.64"/>
    </edge>
    <edge id=":138149164_2" function="internal">
        <lane id=":138149164_2_0" index="0" disallow="tram rail_urban rail rail_electric rail_fast ship container cable_car subway aircraft wheelchair scooter drone" speed="5.86" length="11.90" width="7.50" shape="602.54,503.15 602.20,506.81 603.14,508.88 605.36,509.37 608.87,508.28"/>
    </edge>
    <edge id=":138149164_3" function="internal">
        <lane id=":138149164_3_0" index="0" disallow="tram rail_urban rail rail_electric rail_fast ship container cable_car subway aircraft wheelchair scooter drone" speed="8.94" length="10.77" width="7.50" shape="601.78,516.25 603.27,513.60 604.87,511.99 606.71,510.51 608.87,508.28"/>
    </edge>
    <edge id=":138149164_4" function="internal">
        <lane id=":138149164_4_0" index="0" allow="bicycle" speed="8.94" length="17.22" width="1.95" shape="601.78,516.25 601.93,513.79 600.64,510.55 597.90,506.51 593.72,501.68"/>
    </edge>
    <edge id=":138149164_5" function="internal">
        <lane id=":138149164_5_0" index="0" disallow="tram rail_urban rail rail_electric rail_fast ship container cable_car subway aircraft wheelchair scooter drone" speed="4.14" length="6.02" width="4.12" shape="601.78,516.25 601.44,514.42 600.69,513.54 599.54,513.62 597.99,514.64"/>
    </edge>
    <edge id=":138149164_6" function="internal">
        <lane id=":138149164_6_0" index="0" disallow="tram rail_urban rail rail_electric rail_fast ship container cable_car subway aircraft wheelchair scooter drone" speed="8.94" length="13.48" width="4.12" shape="592.30,503.01 595.40,506.66 597.38,509.82 598.24,512.47 597.99,514.64"/>
    </edge>
    <edge id=":138149164_7" function="internal">
        <lane id=":138149164_7_0" index="0" disallow="tram rail_urban rail rail_electric rail_fast ship container cable_car subway aircraft wheelchair scooter drone" speed="8.83" length="19.76" width="7.50" shape="592.30,503.01 597.52,507.81 602.03,510.28 605.81,510.44 608.87,508.28"/>
    </edge>
    <edge id=":138149164_8" function="internal">
        <lane id=":138149164_8_0" index="0" disallow="tram rail_urban rail rail_electric rail_fast ship container cable_car subway aircraft wheelchair scooter drone" speed="2.85" length="2.85" width="1.95" shape="592.30,503.01 593.15,503.21 593.67,503.06 593.86,502.54 593.72,501.68"/>
    </edge>
    <edge id=":1383538251_0" function="internal">
        <lane id=":1383538251_0_0" index="0" disallow="pedestrian bicycle tram rail_urban rail rail_electric rail_fast ship container cable_car subway aircraft wheelchair scooter drone" speed="17.88" length="7.60" shape="338.87,106.33 334.18,112.31"/>
    </edge>
    <edge id=":1383538251_1" function="internal">
        <lane id=":1383538251_1_0" index="0" disallow="pedestrian bicycle tram rail_urban rail rail_electric rail_fast ship container cable_car subway aircraft wheelchair scooter drone" speed="9.34" length="7.48" shape="334.84,105.19 335.22,107.39 335.47,109.00 335.24,110.48 334.18,112.31"/>
    </edge>
    <edge id=":1383542291_0" function="internal">
        <lane id=":1383542291_0_0" index="0" disallow="tram rail_urban rail rail_electric rail_fast ship container cable_car subway aircraft wheelchair scooter drone" speed="8.94" length="8.66" shape="294.64,79.32 286.43,76.59"/>
    </edge>
    <edge id=":1383542291_1" function="internal">
        <lane id=":1383542291_1_0" index="0" disallow="tram rail_urban rail rail_electric rail_fast ship container cable_car subway aircraft wheelchair scooter drone" speed="3.65" length="4.67" shape="294.64,79.32 293.26,79.73 292.64,80.38 292.79,81.26 293.70,82.38"/>
    </edge>
    <edge id=":1383542291_2" function="internal">
        <lane id=":1383542291_2_0" index="0" disallow="tram rail_urban rail rail_electric rail_fast ship container cable_car subway aircraft wheelchair scooter drone" speed="6.57" length="8.63" shape="286.80,85.80 287.98,83.74 289.52,82.48 291.43,82.03 293.70,82.38"/>
    </edge>
    <edge id=":1383542291_3" function="internal">
        <lane id=":1383542291_3_0" index="0" disallow="tram rail_urban rail rail_electric rail_fast ship container cable_car subway aircraft wheelchair scooter drone" speed="8.94" length="8.83" shape="285.32,79.59 293.70,82.38"/>
    </edge>
    <edge id=":1383542291_4" function="internal">
        <lane id=":1383542291_4_0" index="0" disallow="tram rail_urban rail rail_electric rail_fast ship container cable_car subway aircraft wheelchair scooter drone" speed="3.65" length="4.67" shape="285.32,79.59 286.73,79.25 287.38,78.64 287.28,77.75 286.43,76.59"/>
    </edge>
    <edge id=":14564602_0" function="internal">
        <lane id=":14564602_0_0" index="0" disallow="tram rail_urban rail rail_electric rail_fast ship container cable_car subway aircraft wheelchair scooter drone" speed="13.41" length="2.88" shape="506.02,351.01 505.60,350.30 505.45,349.74 505.31,349.16 504.92,348.42"/>
        <lane id=":14564602_0_1" index="1" disallow="tram rail_urban rail rail_electric rail_fast ship container cable_car subway aircraft wheelchair scooter drone" speed="13.41" length="2.88" shape="503.86,352.71 503.35,352.00 503.04,351.49 502.76,350.97 502.29,350.24"/>
    </edge>
    <edge id=":14564602_2" function="internal">
        <lane id=":14564602_2_0" index="0" disallow="tram rail_urban rail rail_electric rail_fast ship container cable_car subway aircraft wheelchair scooter drone" speed="13.41" length="3.29" width="2.75" shape="496.84,353.99 497.60,354.67 498.22,355.01 498.82,355.38 499.53,356.10"/>
        <lane id=":14564602_2_1" index="1" disallow="tram rail_urban rail rail_electric rail_fast ship container cable_car subway aircraft wheelchair scooter drone" speed="13.41" length="3.29" width="2.75" shape="499.50,352.16 501.69,354.40"/>
    </edge>
    <edge id=":14569054_0" function="internal">
        <lane id=":14569054_0_0" index="0" disallow="pedestrian bicycle tram rail_urban rail rail_electric rail_fast ship container cable_car subway aircraft wheelchair scooter drone" speed="17.88" length="25.46" shape="300.55,152.18 297.23,154.89 292.67,158.02 286.77,161.78 279.43,166.36"/>
    </edge>
    <edge id=":14569054_1" function="internal">
        <lane id=":14569054_1_0" index="0" disallow="pedestrian bicycle tram rail_urban rail rail_electric rail_fast ship container cable_car subway aircraft wheelchair scooter drone" speed="16.56" length="18.14" shape="297.93,162.38 292.20,161.90 288.16,162.13 284.38,163.49 279.43,166.36"/>
        <lane id=":14569054_1_1" index="1" disallow="pedestrian bicycle tram rail_urban rail rail_electric rail_fast ship container cable_car subway aircraft wheelchair scooter drone" speed="15.97" length="18.14" shape="298.36,165.64 293.03,165.15 289.26,165.28 285.74,166.45 281.13,169.08"/>
        <lane id=":14569054_1_2" index="2" disallow="pedestrian bicycle tram rail_urban rail rail_electric rail_fast ship container cable_car subway aircraft wheelchair scooter drone" speed="15.36" length="18.14" shape="298.79,168.90 293.86,168.40 290.36,168.43 287.09,169.40 282.83,171.79"/>
    </edge>
    <edge id=":1609370502_0" function="internal">
        <lane id=":1609370502_0_0" index="0" disallow="pedestrian bicycle tram rail_urban rail rail_electric rail_fast ship container cable_car subway aircraft wheelchair scooter drone" speed="17.88" length="0.17" shape="151.81,205.41 151.72,205.42"/>
        <lane id=":1609370502_0_1" index="1" disallow="pedestrian bicycle tram rail_urban rail rail_electric rail_fast ship container cable_car subway aircraft wheelchair scooter drone" speed="17.88" length="0.17" shape="152.45,208.55 152.20,208.59"/>
    </edge>
    <edge id=":1609370502_2" function="internal">
        <lane id=":1609370502_2_0" index="0" disallow="pedestrian bicycle tram rail_urban rail rail_electric rail_fast ship container cable_car subway aircraft wheelchair scooter drone" speed="17.88" length="0.50" shape="153.16,214.92 153.73,214.79"/>
        <lane id=":1609370502_2_1" index="1" disallow="pedestrian bicycle tram rail_urban rail rail_electric rail_fast ship container cable_car subway aircraft wheelchair scooter drone" speed="17.88" length="0.50" shape="152.68,211.75 152.80,211.73 152.88,211.70 152.96,211.68 153.08,211.65"/>
    </edge>
    <edge id=":1609370553_0" function="internal">
        <lane id=":1609370553_0_0" index="0" disallow="pedestrian bicycle tram rail_urban rail rail_electric rail_fast ship container cable_car subway aircraft wheelchair scooter drone" speed="17.88" length="14.32" shape="34.87,229.33 31.01,230.91 28.62,232.66 26.20,234.32 22.28,235.63"/>
        <lane id=":1609370553_0_1" index="1" disallow="pedestrian bicycle tram rail_urban rail rail_electric rail_fast ship container cable_car subway aircraft wheelchair scooter drone" speed="17.88" length="14.32" shape="35.73,232.41 31.80,234.01 29.36,235.77 26.90,237.45 22.91,238.77"/>
    </edge>
    <edge id=":1609370553_2" function="internal">
        <lane id=":1609370553_2_0" index="0" disallow="pedestrian bicycle tram rail_urban rail rail_electric rail_fast ship container cable_car subway aircraft wheelchair scooter drone" speed="7.99" length="3.90" shape="36.58,235.49 33.01,237.05"/>
    </edge>
    <edge id=":1609370553_3" function="internal">
        <lane id=":1609370553_3_0" index="0" disallow="pedestrian bicycle tram rail_urban rail rail_electric rail_fast ship container cable_car subway aircraft wheelchair scooter drone" speed="3.65" length="1.44" shape="36.58,235.49 35.64,236.58"/>
    </edge>
    <edge id=":1609370553_10" function="internal">
        <lane id=":1609370553_10_0" index="0" disallow="pedestrian bicycle tram rail_urban rail rail_electric rail_fast ship container cable_car subway aircraft wheelchair scooter drone" speed="7.99" length="10.32" shape="33.01,237.05 30.80,239.38 29.95,242.48 30.47,246.34"/>
    </edge>
    <edge id=":1609370553_11" function="internal">
        <lane id=":1609370553_11_0" index="0" disallow="pedestrian bicycle tram rail_urban rail rail_electric rail_fast ship container cable_car subway aircraft wheelchair scooter drone" speed="3.65" length="3.23" shape="35.64,236.58 35.46,237.46 36.06,238.13 37.43,238.58"/>
    </edge>
    <edge id=":1609370553_4" function="internal">
        <lane id=":1609370553_4_0" index="0" disallow="pedestrian bicycle tram rail_urban rail rail_electric rail_fast ship container cable_car subway aircraft wheelchair scooter drone" speed="6.50" length="9.03" shape="33.55,245.47 33.22,243.02 33.76,241.05 35.16,239.57 37.43,238.58"/>
    </edge>
    <edge id=":1609370553_5" function="internal">