<?xml version="1.0" encoding="UTF-8"?>

<!-- generated on 2025-04-12 18:59:47.912553 by osmWebWizard.py v1_22_0+0002-63e50f52594
<configuration>
    <net-file value="C:\Users\habdi\traffic_marl_project\sumo\2025-04-12-18-59-39\osm.net.xml.gz"/>
    <output-trip-file value="C:\Users\habdi\traffic_marl_project\sumo\2025-04-12-18-59-39\osm.passenger.trips.xml"/>
    <route-file value="C:\Users\habdi\traffic_marl_project\sumo\2025-04-12-18-59-39\osm.passenger.rou.xml"/>
    <prefix value="veh"/>
    <trip-attributes value="departLane=&quot;best&quot;"/>
    <fringe-start-attributes value="departSpeed=&quot;max&quot;"/>
    <vehicle-class value="passenger"/>
    <lanes value="True"/>
    <fringe-factor value="5"/>
    <allow-fringe.min-length value="1000.0"/>
    <via-edge-types value="highway.motorway,highway.motorway_link,highway.trunk_link,highway.primary_link,highway.secondary_link,highway.tertiary_link"/>
    <min-distance value="300.0"/>
    <min-distance.fringe value="10.0"/>
    <remove-loops value="True"/>
    <validate value="True"/>
    <end value="2000.0"/>
    <insertion-density value="75.0"/>
</configuration>
-->

<!-- generated on 2025-04-12 18:59:47 by Eclipse SUMO duarouter Version 1.22.0
<duarouterConfiguration xmlns:xsi="http://www.w3.org/2001/XMLSchema-instance" xsi:noNamespaceSchemaLocation="http://sumo.dlr.de/xsd/duarouterConfiguration.xsd">

    <input>
        <net-file value="C:\Users\habdi\traffic_marl_project\sumo\2025-04-12-18-59-39\osm.net.xml.gz"/>
        <route-files value="C:\Users\habdi\traffic_marl_project\sumo\2025-04-12-18-59-39\osm.passenger.trips.xml"/>
    </input>

    <output>
        <output-file value="C:\Users\habdi\traffic_marl_project\sumo\2025-04-12-18-59-39\osm.passenger.trips.xml.tmp"/>
        <alternatives-output value="NUL"/>
        <write-trips value="true"/>
    </output>

    <processing>
        <remove-loops value="true"/>
    </processing>

    <time>
        <begin value="0.0"/>
        <end value="2000.0"/>
    </time>

    <report>
        <no-warnings value="true"/>
        <ignore-errors value="true"/>
        <no-step-log value="true"/>
    </report>

</duarouterConfiguration>
-->

<routes xmlns:xsi="http://www.w3.org/2001/XMLSchema-instance" xsi:noNamespaceSchemaLocation="http://sumo.dlr.de/xsd/routes_file.xsd">
    <vType id="veh_passenger" vClass="passenger"/>
    <trip id="veh0" type="veh_passenger" depart="0.00" departLane="best" departSpeed="max" from="235223939" to="-1237028605#6"/>
    <trip id="veh1" type="veh_passenger" depart="3.81" departLane="best" from="4211799#0" to="-30918468#0"/>
    <trip id="veh2" type="veh_passenger" depart="7.63" departLane="best" departSpeed="max" from="30918468#0" to="23301324#0"/>
    <trip id="veh3" type="veh_passenger" depart="11.44" departLane="best" departSpeed="max" from="443562321" to="-22789107#0"/>
    <trip id="veh4" type="veh_passenger" depart="15.26" departLane="best" from="12356645#0" to="1237028607#2"/>
    <trip id="veh5" type="veh_passenger" depart="19.07" departLane="best" from="30797789" to="16454589#1"/>
    <trip id="veh6" type="veh_passenger" depart="22.89" departLane="best" from="-1237028607#1" to="-30488404#0"/>
    <trip id="veh7" type="veh_passenger" depart="26.70" departLane="best" from="-30885195#0" to="221985595"/>
    <trip id="veh9" type="veh_passenger" depart="34.33" departLane="best" departSpeed="max" from="914122032#0" to="-6638464"/>
    <trip id="veh10" type="veh_passenger" depart="38.15" departLane="best" departSpeed="max" from="-225557576" to="-22789118#2"/>
    <trip id="veh11" type="veh_passenger" depart="41.96" departLane="best" from="4211799#1" to="225557576"/>
    <trip id="veh14" type="veh_passenger" depart="53.41" departLane="best" from="399721190#1" to="22789082#0"/>
    <trip id="veh15" type="veh_passenger" depart="57.22" departLane="best" departSpeed="max" from="30488404#0" to="16454589#0"/>
    <trip id="veh16" type="veh_passenger" depart="61.04" departLane="best" departSpeed="max" from="-30885195#1" to="-43078525#0"/>
    <trip id="veh17" type="veh_passenger" depart="64.85" departLane="best" departSpeed="max" from="-17097985#9" to="-30923864#0"/>
    <trip id="veh18" type="veh_passenger" depart="68.67" departLane="best" departSpeed="max" from="-225557577" to="-43032789"/>
    <trip id="veh19" type="veh_passenger" depart="72.48" departLane="best" departSpeed="max" from="235223939" to="-79852088"/>
    <trip id="veh20" type="veh_passenger" depart="76.30" departLane="best" departSpeed="max" from="-347978816#3" to="6638536"/>
    <trip id="veh21" type="veh_passenger" depart="80.11" departLane="best" departSpeed="max" from="241990562#0" to="22789082#0"/>
    <trip id="veh23" type="veh_passenger" depart="87.74" departLane="best" from="914122032#3" to="22789095#9"/>
    <trip id="veh24" type="veh_passenger" depart="91.56" departLane="best" from="4211799#0" to="30918468#2"/>
    <trip id="veh25" type="veh_passenger" depart="95.37" departLane="best" departSpeed="max" from="124268096" to="4211799#0"/>
    <trip id="veh27" type="veh_passenger" depart="103.00" departLane="best" departSpeed="max" from="6638464" to="12359963"/>
    <trip id="veh29" type="veh_passenger" depart="110.63" departLane="best" from="221985593" to="399721190#0"/>
    <trip id="veh30" type="veh_passenger" depart="114.45" departLane="best" departSpeed="max" from="22789107#0" to="47903725#0"/>
    <trip id="veh32" type="veh_passenger" depart="122.08" departLane="best" from="99005150" to="16455034#3"/>
    <trip id="veh33" type="veh_passenger" depart="125.89" departLane="best" from="508980686" to="1195361691"/>
    <trip id="veh34" type="veh_passenger" depart="129.71" departLane="best" from="-99005150" to="16482390#0"/>
    <trip id="veh35" type="veh_passenger" depart="133.52" departLane="best" departSpeed="max" from="914122032#0" to="399721192#0"/>
    <trip id="veh36" type="veh_passenger" depart="137.34" departLane="best" departSpeed="max" from="-1195361691" to="30600072"/>
    <trip id="veh37" type="veh_passenger" depart="141.15" departLane="best" departSpeed="max" from="-347978816#3" to="22789095#9"/>
    <trip id="veh38" type="veh_passenger" depart="144.97" departLane="best" departSpeed="max" from="-22789082#2" to="1195361693"/>
    <trip id="veh39" type="veh_passenger" depart="148.78" departLane="best" from="-1237028607#5" to="92880857"/>
    <trip id="veh40" type="veh_passenger" depart="152.60" departLane="best" departSpeed="max" from="443562321" to="-399721190#0"/>
    <trip id="veh41" type="veh_passenger" depart="156.41" departLane="best" departSpeed="max" from="6638464" to="4211799#0"/>
    <trip id="veh42" type="veh_passenger" depart="160.23" departLane="best" departSpeed="max" from="-47903725#1" to="22789095#9"/>
    <trip id="veh44" type="veh_passenger" depart="167.86" departLane="best" departSpeed="max" from="327435333#0" to="16482390#0"/>
    <trip id="veh45" type="veh_passenger" depart="171.67" departLane="best" from="1006579594" to="-556952616"/>
    <trip id="veh46" type="veh_passenger" depart="175.49" departLane="best" departSpeed="max" from="443562321" to="347978816#2"/>
    <trip id="veh47" type="veh_passenger" depart="179.30" departLane="best" departSpeed="max" from="124268096" to="17097985#1"/>
    <trip id="veh49" type="veh_passenger" depart="186.93" departLane="best" departSpeed="max" from="-225557576" to="14331400"/>
    <trip id="veh50" type="veh_passenger" depart="190.75" departLane="best" from="-17097985#7" to="30885195#1"/>
    <trip id="veh52" type="veh_passenger" depart="198.38" departLane="best" departSpeed="max" from="-347978816#3" to="-4211799#0"/>
    <trip id="veh53" type="veh_passenger" depart="202.19" departLane="best" from="12356645#0" to="16454589#1"/>
    <trip id="veh54" type="veh_passenger" depart="206.01" departLane="best" departSpeed="max" from="209216639" to="30600072"/>
    <trip id="veh56" type="veh_passenger" depart="213.64" departLane="best" from="99005149#0" to="22789096#0"/>
    <trip id="veh57" type="veh_passenger" depart="217.45" departLane="best" from="-12360012#3" to="16478150#0"/>
    <trip id="veh58" type="veh_passenger" depart="221.27" departLane="best" departSpeed="max" from="-22789089" to="-30918468#1"/>
    <trip id="veh60" type="veh_passenger" depart="228.90" departLane="best" from="-30488404#4" to="-235216375"/>
    <trip id="veh61" type="veh_passenger" depart="232.71" departLane="best" departSpeed="max" from="781314576" to="17097985#7"/>
    <trip id="veh62" type="veh_passenger" depart="236.53" departLane="best" departSpeed="max" from="-225557577" to="1195361692"/>
    <trip id="veh63" type="veh_passenger" depart="240.34" departLane="best" from="12356645#0" to="1237028607#2"/>
    <trip id="veh64" type="veh_passenger" depart="244.16" departLane="best" departSpeed="max" from="914122032#0" to="-22789118#2"/>
    <trip id="veh65" type="veh_passenger" depart="247.97" departLane="best" from="1193607531" to="6638467"/>
    <trip id="veh66" type="veh_passenger" depart="251.79" departLane="best" departSpeed="max" from="43032789" to="347978816#0"/>
    <trip id="veh67" type="veh_passenger" depart="255.60" departLane="best" departSpeed="max" from="-243280102#1" to="12356645#0"/>
    <trip id="veh68" type="veh_passenger" depart="259.42" departLane="best" from="-1195361693" to="-43032789"/>
    <trip id="veh70" type="veh_passenger" depart="267.05" departLane="best" departSpeed="max" from="1237028605#0" to="16501526"/>
    <trip id="veh71" type="veh_passenger" depart="270.86" departLane="best" from="99005150" to="347978817#0"/>
    <trip id="veh72" type="veh_passenger" depart="274.68" departLane="best" departSpeed="max" from="914122032#0" to="6638467"/>
    <trip id="veh74" type="veh_passenger" depart="282.31" departLane="best" from="16481038" to="-30918468#0"/>
    <trip id="veh76" type="veh_passenger" depart="289.94" departLane="best" from="124267487#0" to="1195361691"/>
    <trip id="veh77" type="veh_passenger" depart="293.75" departLane="best" departSpeed="max" from="914122032#0" to="99005149#2"/>
    <trip id="veh78" type="veh_passenger" depart="297.57" departLane="best" departSpeed="max" from="220701949#0" to="30488404#3"/>
    <trip id="veh79" type="veh_passenger" depart="301.38" departLane="best" departSpeed="max" from="914122032#0" to="17097985#8"/>
    <trip id="veh80" type="veh_passenger" depart="305.20" departLane="best" departSpeed="max" from="209216639" to="30602199#0"/>
    <trip id="veh81" type="veh_passenger" depart="309.01" departLane="best" departSpeed="max" from="-169031299#1" to="221985593"/>
    <trip id="veh82" type="veh_passenger" depart="312.83" departLane="best" from="16501584#0" to="399721190#0"/>
    <trip id="veh83" type="veh_passenger" depart="316.64" departLane="best" from="22789120#0" to="92880857"/>
    <trip id="veh84" type="veh_passenger" depart="320.46" departLane="best" departSpeed="max" from="-17097985#9" to="-29419486#2"/>
    <trip id="veh88" type="veh_passenger" depart="335.72" departLane="best" departSpeed="max" from="22789118#0" to="22789088#0"/>
    <trip id="veh91" type="veh_passenger" depart="347.16" departLane="best" departSpeed="max" from="243280102#0" to="-443562321"/>
    <trip id="veh92" type="veh_passenger" depart="350.98" departLane="best" departSpeed="max" from="-17097985#9" to="12359963"/>
    <trip id="veh93" type="veh_passenger" depart="354.79" departLane="best" departSpeed="max" from="-17097985#9" to="-30918468#0"/>
    <trip id="veh94" type="veh_passenger" depart="358.61" departLane="best" departSpeed="max" from="-347978816#3" to="6638536"/>
    <trip id="veh95" type="veh_passenger" depart="362.42" departLane="best" from="-99005150" to="-241990562#1"/>
    <trip id="veh97" type="veh_passenger" depart="370.05" departLane="best" departSpeed="max" from="243280102#0" to="6638536"/>
    <trip id="veh101" type="veh_passenger" depart="385.31" departLane="best" departSpeed="max" from="235223939" to="-399721190#0"/>
    <trip id="veh102" type="veh_passenger" depart="389.12" departLane="best" from="16482099#0" to="347978815"/>
    <trip id="veh103" type="veh_passenger" depart="392.94" departLane="best" from="4211799#1" to="-22789107#1"/>
    <trip id="veh104" type="veh_passenger" depart="396.75" departLane="best" from="12356645#0" to="-43032789"/>
    <trip id="veh105" type="veh_passenger" depart="400.57" departLane="best" from="1006579594" to="30918468#2"/>
    <trip id="veh108" type="veh_passenger" depart="412.01" departLane="best" departSpeed="max" from="-17097985#9" to="-30091020#2"/>
    <trip id="veh110" type="veh_passenger" depart="419.64" departLane="best" from="-347978817#1" to="16501526"/>
    <trip id="veh111" type="veh_passenger" depart="423.46" departLane="best" from="5211618#0" to="-30797789"/>
    <trip id="veh113" type="veh_passenger" depart="431.09" departLane="best" from="1194733359#0" to="22789088#0"/>
    <trip id="veh114" type="veh_passenger" depart="434.90" departLane="best" from="22789118#3" to="6638469#0"/>
    <trip id="veh115" type="veh_passenger" depart="438.72" departLane="best" departSpeed="max" from="43078525#0" to="99005149#2"/>
    <trip id="veh117" type="veh_passenger" depart="446.35" departLane="best" from="-12360012#3" to="30600072"/>
    <trip id="veh118" type="veh_passenger" depart="450.16" departLane="best" departSpeed="max" from="-6638536" to="6638469#3"/>
    <trip id="veh121" type="veh_passenger" depart="461.61" departLane="best" from="347978814" to="22789120#0"/>
    <trip id="veh122" type="veh_passenger" depart="465.42" departLane="best" from="124268098" to="-443562321"/>
    <trip id="veh123" type="veh_passenger" depart="469.24" departLane="best" from="-12360012#0" to="-30488404#0"/>
    <trip id="veh125" type="veh_passenger" depart="476.87" departLane="best" departSpeed="max" from="914122032#0" to="-43032789"/>
    <trip id="veh126" type="veh_passenger" depart="480.68" departLane="best" departSpeed="max" from="914122032#0" to="16501526"/>
    <trip id="veh128" type="veh_passenger" depart="488.31" departLane="best" departSpeed="max" from="914122032#0" to="399721190#0"/>
    <trip id="veh129" type="veh_passenger" depart="492.13" departLane="best" departSpeed="max" from="-22789082#2" to="1195361693"/>
    <trip id="veh130" type="veh_passenger" depart="495.94" departLane="best" from="30797789" to="-443562321"/>
    <trip id="veh131" type="veh_passenger" depart="499.76" departLane="best" from="-22789120#2" to="16455034#3"/>
    <trip id="veh132" type="veh_passenger" depart="503.57" departLane="best" departSpeed="max" from="1063409329" to="17097985#8"/>
    <trip id="veh133" type="veh_passenger" depart="507.39" departLane="best" from="1006579594" to="636593558"/>
    <trip id="veh134" type="veh_passenger" depart="511.20" departLane="best" departSpeed="max" from="209216639" to="30600072"/>
    <trip id="veh136" type="veh_passenger" depart="518.83" departLane="best" departSpeed="max" from="243280102#0" to="-6638464"/>
    <trip id="veh137" type="veh_passenger" depart="522.65" departLane="best" departSpeed="max" from="124268096" to="370782965#0"/>
    <trip id="veh139" type="veh_passenger" depart="530.28" departLane="best" departSpeed="max" from="124268096" to="1195361691"/>
    <trip id="veh140" type="veh_passenger" depart="534.09" departLane="best" departSpeed="max" from="-22789089" to="1195361691"/>
    <trip id="veh141" type="veh_passenger" depart="537.91" departLane="best" from="508980686" to="22789082#0"/>
    <trip id="veh142" type="veh_passenger" depart="541.72" departLane="best" from="12356645#2" to="17097985#8"/>
    <trip id="veh143" type="veh_passenger" depart="545.54" departLane="best" departSpeed="max" from="1237028605#0" to="-30918468#0"/>
    <trip id="veh144" type="veh_passenger" depart="549.35" departLane="best" departSpeed="max" from="151116485" to="47903725#0"/>
    <trip id="veh145" type="veh_passenger" depart="553.17" departLane="best" from="-347978817#1" to="-243280102#0"/>
    <trip id="veh146" type="veh_passenger" depart="556.98" departLane="best" from="-221985592" to="16455034#3"/>
    <trip id="veh147" type="veh_passenger" depart="560.80" departLane="best" departSpeed="max" from="235223939" to="-6638464"/>
    <trip id="veh148" type="veh_passenger" depart="564.61" departLane="best" from="370782965#0" to="124268096"/>
    <trip id="veh149" type="veh_passenger" depart="568.43" departLane="best" departSpeed="max" from="243280102#0" to="-30918468#1"/>
    <trip id="veh151" type="veh_passenger" depart="576.06" departLane="best" from="30923892" to="124268098"/>
    <trip id="veh152" type="veh_passenger" depart="579.87" departLane="best" from="4213806#0" to="147751296#0"/>
    <trip id="veh153" type="veh_passenger" depart="583.69" departLane="best" from="-1195361692" to="22789089"/>
    <trip id="veh155" type="veh_passenger" depart="591.32" departLane="best" departSpeed="max" from="-22789082#2" to="1195361691"/>
    <trip id="veh156" type="veh_passenger" depart="595.13" departLane="best" from="241990562#1" to="92880857"/>
    <trip id="veh160" type="veh_passenger" depart="610.39" departLane="best" departSpeed="max" from="443562321" to="22789082#0"/>
    <trip id="veh166" type="veh_passenger" depart="633.28" departLane="best" departSpeed="max" from="327435333#0" to="16481038"/>
    <trip id="veh167" type="veh_passenger" depart="637.10" departLane="best" departSpeed="max" from="235216375" to="-43032789"/>
    <trip id="veh168" type="veh_passenger" depart="640.91" departLane="best" departSpeed="max" from="-17097985#9" to="-43078525#0"/>
    <trip id="veh169" type="veh_passenger" depart="644.73" departLane="best" from="399721190#0" to="5204112#0"/>
    <trip id="veh170" type="veh_passenger" depart="648.54" departLane="best" departSpeed="max" from="209216639" to="-235223939"/>
    <trip id="veh171" type="veh_passenger" depart="652.36" departLane="best" from="30918468#1" to="243280102#1"/>
    <trip id="veh172" type="veh_passenger" depart="656.17" departLane="best" departSpeed="max" from="30488404#0" to="-209216639"/>
    <trip id="veh173" type="veh_passenger" depart="659.99" departLane="best" from="-1195361692" to="30488404#3"/>
    <trip id="veh174" type="veh_passenger" depart="663.80" departLane="best" from="-1195361693" to="347978815"/>
    <trip id="veh175" type="veh_passenger" depart="667.62" departLane="best" departSpeed="max" from="43032789" to="30885195#1"/>
    <trip id="veh176" type="veh_passenger" depart="671.43" departLane="best" departSpeed="max" from="1063409329" to="1195361692"/>
    <trip id="veh177" type="veh_passenger" depart="675.25" departLane="best" departSpeed="max" from="-99005149#4" to="30602247#0"/>
    <trip id="veh178" type="veh_passenger" depart="679.06" departLane="best" departSpeed="max" from="43032789" to="92880857"/>
    <trip id="veh179" type="veh_passenger" depart="682.88" departLane="best" from="-1195361692" to="30602199#0"/>
    <trip id="veh180" type="veh_passenger" depart="686.69" departLane="best" departSpeed="max" from="220701949#0" to="225557576"/>
    <trip id="veh181" type="veh_passenger" depart="690.51" departLane="best" departSpeed="max" from="-6638536" to="-241990562#1"/>
    <trip id="veh183" type="veh_passenger" depart="698.14" departLane="best" departSpeed="max" from="235216375" to="-1237028607#1"/>
    <trip id="veh185" type="veh_passenger" depart="705.77" departLane="best" from="-16478150#2" to="-99005149#1"/>
    <trip id="veh188" type="veh_passenger" depart="717.21" departLane="best" departSpeed="max" from="241990562#0" to="30923864#1"/>
    <trip id="veh189" type="veh_passenger" depart="721.03" departLane="best" from="-12359896" to="-241990562#0"/>
    <trip id="veh190" type="veh_passenger" depart="724.84" departLane="best" from="221985595" to="-30918468#0"/>
    <trip id="veh191" type="veh_passenger" depart="728.65" departLane="best" departSpeed="max" from="30488404#0" to="30885195#1"/>
    <trip id="veh194" type="veh_passenger" depart="740.10" departLane="best" from="370782965#0" to="92880857"/>
    <trip id="veh195" type="veh_passenger" depart="743.91" departLane="best" departSpeed="max" from="914122032#0" to="1193607532"/>
    <trip id="veh198" type="veh_passenger" depart="755.36" departLane="best" departSpeed="max" from="-22789089" to="99005149#2"/>
    <trip id="veh199" type="veh_passenger" depart="759.17" departLane="best" departSpeed="max" from="327435333#0" to="-78019705"/>
    <trip id="veh200" type="veh_passenger" depart="762.99" departLane="best" departSpeed="max" from="-22789082#2" to="92880857"/>
    <trip id="veh201" type="veh_passenger" depart="766.80" departLane="best" departSpeed="max" from="30918468#0" to="92880857"/>
    <trip id="veh202" type="veh_passenger" depart="770.62" departLane="best" from="399721190#0" to="327435334#0"/>
    <trip id="veh203" type="veh_passenger" depart="774.43" departLane="best" departSpeed="max" from="209216639" to="1353842000"/>
    <trip id="veh204" type="veh_passenger" depart="778.25" departLane="best" from="-12360012#0" to="30600072"/>
    <trip id="veh205" type="veh_passenger" depart="782.06" departLane="best" from="-347978817#1" to="399721189#0"/>
    <trip id="veh207" type="veh_passenger" depart="789.69" departLane="best" from="-221985592" to="22789082#0"/>
    <trip id="veh208" type="veh_passenger" depart="793.51" departLane="best" from="854563520" to="1237028607#2"/>
    <trip id="veh209" type="veh_passenger" depart="797.32" departLane="best" from="4213806#0" to="-29419486#2"/>
    <trip id="veh211" type="veh_passenger" depart="804.95" departLane="best" departSpeed="max" from="-6638536" to="347978815"/>
    <trip id="veh212" type="veh_passenger" depart="808.77" departLane="best" departSpeed="max" from="30488404#0" to="-43032789"/>
    <trip id="veh214" type="veh_passenger" depart="816.40" departLane="best" departSpeed="max" from="-225557576" to="30600072"/>
    <trip id="veh215" type="veh_passenger" depart="820.21" departLane="best" from="16482099#0" to="-30797789"/>
    <trip id="veh217" type="veh_passenger" depart="827.84" departLane="best" from="16482099#0" to="-30923892"/>
    <trip id="veh219" type="veh_passenger" depart="835.47" departLane="best" departSpeed="max" from="22789107#0" to="124268096"/>
    <trip id="veh221" type="veh_passenger" depart="843.10" departLane="best" departSpeed="max" from="30923864#0" to="-6638464"/>
    <trip id="veh223" type="veh_passenger" depart="850.73" departLane="best" departSpeed="max" from="209216639" to="30885195#1"/>
    <trip id="veh224" type="veh_passenger" depart="854.55" departLane="best" departSpeed="max" from="-241990562#2" to="-30918468#0"/>
    <trip id="veh225" type="veh_passenger" depart="858.36" departLane="best" from="-16478163" to="30600072"/>
    <trip id="veh226" type="veh_passenger" depart="862.18" departLane="best" departSpeed="max" from="914122032#0" to="16482099#0"/>
    <trip id="veh227" type="veh_passenger" depart="865.99" departLane="best" departSpeed="max" from="-243280102#1" to="-30923864#0"/>
    <trip id="veh228" type="veh_passenger" depart="869.81" departLane="best" departSpeed="max" from="-241990562#2" to="12360012#0"/>
    <trip id="veh230" type="veh_passenger" depart="877.44" departLane="best" departSpeed="max" from="914122032#0" to="16546592"/>
    <trip id="veh232" type="veh_passenger" depart="885.07" departLane="best" departSpeed="max" from="43078525#0" to="14331400"/>
    <trip id="veh233" type="veh_passenger" depart="888.88" departLane="best" from="43078525#1" to="17097985#8"/>
    <trip id="veh235" type="veh_passenger" depart="896.51" departLane="best" departSpeed="max" from="-241990562#2" to="16478163"/>
    <trip id="veh236" type="veh_passenger" depart="900.33" departLane="best" departSpeed="max" from="781314576" to="1353842000"/>
    <trip id="veh237" type="veh_passenger" depart="904.14" departLane="best" from="221985595" to="-443562321"/>
    <trip id="veh238" type="veh_passenger" depart="907.96" departLane="best" departSpeed="max" from="1237028605#0" to="-87574797#1"/>
    <trip id="veh239" type="veh_passenger" depart="911.77" departLane="best" from="914122032#3" to="-443562321"/>
    <trip id="veh240" type="veh_passenger" depart="915.59" departLane="best" departSpeed="max" from="235216375" to="22789082#0"/>
    <trip id="veh244" type="veh_passenger" depart="930.85" departLane="best" from="-1006579594" to="12356645#0-AddedOffRampEdge"/>
    <trip id="veh245" type="veh_passenger" depart="934.66" departLane="best" from="30918468#1" to="29419492"/>
    <trip id="veh246" type="veh_passenger" depart="938.48" departLane="best" departSpeed="max" from="29419412#0" to="636593558"/>
    <trip id="veh247" type="veh_passenger" depart="942.29" departLane="best" from="347978814" to="22789089"/>
    <trip id="veh249" type="veh_passenger" depart="949.92" departLane="best" departSpeed="max" from="241990562#0" to="5211618#0"/>
    <trip id="veh251" type="veh_passenger" depart="957.55" departLane="best" departSpeed="max" from="30923864#0" to="17097985#1"/>
    <trip id="veh252" type="veh_passenger" depart="961.37" departLane="best" departSpeed="max" from="-437451412" to="23301324#0"/>
    <trip id="veh254" type="veh_passenger" depart="969.00" departLane="best" from="30600063" to="22789101"/>
    <trip id="veh255" type="veh_passenger" depart="972.81" departLane="best" departSpeed="max" from="-16455034#3" to="1195361692"/>
    <trip id="veh256" type="veh_passenger" depart="976.63" departLane="best" departSpeed="max" from="-225557576" to="92880857"/>
    <trip id="veh258" type="veh_passenger" depart="984.26" departLane="best" departSpeed="max" from="79852088" to="99005150"/>
    <trip id="veh259" type="veh_passenger" depart="988.07" departLane="best" departSpeed="max" from="243280102#0" to="-4211799#0"/>
    <trip id="veh260" type="veh_passenger" depart="991.89" departLane="best" departSpeed="max" from="-16455034#3" to="-30797789"/>
    <trip id="veh261" type="veh_passenger" depart="995.70" departLane="best" departSpeed="max" from="22789107#0" to="22789095#9"/>
    <trip id="veh262" type="veh_passenger" depart="999.52" departLane="best" from="30600063" to="-22789107#0"/>
    <trip id="veh263" type="veh_passenger" depart="1003.33" departLane="best" from="-99005149#1" to="-6638464"/>
    <trip id="veh267" type="veh_passenger" depart="1018.59" departLane="best" from="124267487#0" to="-443562321"/>
    <trip id="veh268" type="veh_passenger" depart="1022.41" departLane="best" from="629608002" to="92880857"/>
    <trip id="veh269" type="veh_passenger" depart="1026.22" departLane="best" from="914122032#3" to="-22789107#1"/>
    <trip id="veh270" type="veh_passenger" depart="1030.04" departLane="best" departSpeed="max" from="209216639" to="1195361691"/>
    <trip id="veh271" type="veh_passenger" depart="1033.85" departLane="best" departSpeed="max" from="-243280102#1" to="-781314576"/>
    <trip id="veh273" type="veh_passenger" depart="1041.48" departLane="best" departSpeed="max" from="220701949#0" to="6638467"/>
    <trip id="veh274" type="veh_passenger" depart="1045.30" departLane="best" from="-12360012#3" to="243280102#1"/>
    <trip id="veh275" type="veh_passenger" depart="1049.11" departLane="best" departSpeed="max" from="-22789089" to="-99005149#1"/>
    <trip id="veh278" type="veh_passenger" depart="1060.56" departLane="best" from="99005149#0" to="590746240#0"/>
    <trip id="veh281" type="veh_passenger" depart="1072.00" departLane="best" from="399721190#0" to="347978817#0"/>
    <trip id="veh284" type="veh_passenger" depart="1083.45" departLane="best" departSpeed="max" from="443562321" to="16501526"/>
    <trip id="veh285" type="veh_passenger" depart="1087.26" departLane="best" from="4211799#0" to="30923864#1"/>
    <trip id="veh286" type="veh_passenger" depart="1091.07" departLane="best" from="-1195361692" to="6638536"/>
    <trip id="veh289" type="veh_passenger" depart="1102.52" departLane="best" from="124267487#0" to="-556952616"/>
    <trip id="veh291" type="veh_passenger" depart="1110.15" departLane="best" departSpeed="max" from="30923864#0" to="29419492"/>
    <trip id="veh292" type="veh_passenger" depart="1113.96" departLane="best" from="370782963" to="-99005150"/>
    <trip id="veh293" type="veh_passenger" depart="1117.78" departLane="best" departSpeed="max" from="243280102#0" to="347978815"/>
    <trip id="veh294" type="veh_passenger" depart="1121.59" departLane="best" departSpeed="max" from="914122032#0" to="14331400"/>
    <trip id="veh295" type="veh_passenger" depart="1125.41" departLane="best" from="22789107#1" to="-4211799#0"/>
    <trip id="veh298" type="veh_passenger" depart="1136.85" departLane="best" from="30602218" to="1195361691"/>
    <trip id="veh300" type="veh_passenger" depart="1144.48" departLane="best" departSpeed="max" from="151116485" to="92880857"/>
    <trip id="veh301" type="veh_passenger" depart="1148.30" departLane="best" departSpeed="max" from="-6638536" to="243280102#1"/>
    <trip id="veh302" type="veh_passenger" depart="1152.11" departLane="best" departSpeed="max" from="43032789" to="-87574797#1"/>
    <trip id="veh303" type="veh_passenger" depart="1155.93" departLane="best" departSpeed="max" from="1063409329" to="-443562321"/>
    <trip id="veh305" type="veh_passenger" depart="1163.56" departLane="best" from="43078525#1" to="-151116485"/>
    <trip id="veh307" type="veh_passenger" depart="1171.19" departLane="best" departSpeed="max" from="30923864#0" to="1195361692"/>
    <trip id="veh308" type="veh_passenger" depart="1175.00" departLane="best" departSpeed="max" from="-225557577" to="22789095#9"/>
    <trip id="veh312" type="veh_passenger" depart="1190.26" departLane="best" departSpeed="max" from="-437451412" to="-79852088"/>
    <trip id="veh313" type="veh_passenger" depart="1194.08" departLane="best" departSpeed="max" from="-22789096#1" to="-16485101#1"/>
    <trip id="veh314" type="veh_passenger" depart="1197.89" departLane="best" from="221985595" to="-30923892"/>