<?xml version="1.0" encoding="UTF-8"?>

<!-- generated on 2025-04-21 15:43:59 by Eclipse SUMO duarouter Version 1.22.0
<duarouterConfiguration xmlns:xsi="http://www.w3.org/2001/XMLSchema-instance" xsi:noNamespaceSchemaLocation="http://sumo.dlr.de/xsd/duarouterConfiguration.xsd">

    <input>
        <net-file value="cleaned.net.xml"/>
        <route-files value="osm.bus.trips.xml"/>
    </input>

    <output>
        <output-file value="osm.cleaned.bus.rou.xml"/>
    </output>

    <report>
        <ignore-errors value="true"/>
    </report>

</duarouterConfiguration>
-->

<routes xmlns:xsi="http://www.w3.org/2001/XMLSchema-instance" xsi:noNamespaceSchemaLocation="http://sumo.dlr.de/xsd/routes_file.xsd">
    <vType id="bus_bus" vClass="bus" color="red"/>
    <vehicle id="bus0" type="bus_bus" depart="0.00" departLane="best" departSpeed="max">
        <route edges="-30923864#1 30923892 -12360012#0 -16455034#2 -347978817#1 347978818#0 508980686 370782965#0 1193607531 -1237028607#5 -1237028607#4 -1237028607#1 -5204112#3 22789120#0 22789120#2 22789120#3 -99005149#1 -99005150 -87574797#1 -399721190#0 -1006579594 -4211799#3 -16485101#1 -30488404#2 -30488404#0"/>
    </vehicle>
    <vehicle id="bus2" type="bus_bus" depart="76.30" departLane="best" departSpeed="max">
        <route edges="1063409329 246728786#0 30600063 37342133#0 30601708 38583775 16501614 38583768 16482099#0 1194733360 399721192#0 4211799#0 4211799#1 1006579594 399721190#0 399721190#1 99005150 99005149#0 -22789120#4 -22789120#2 -22789120#1 5204112#0 1237028607#0 1237028607#2"/>
    </vehicle>
    <vehicle id="bus3" type="bus_bus" depart="114.45" departLane="best" departSpeed="max">
        <route edges="-243280102#1 30797789 22789120#3 -99005149#1 -99005150 -87574797#1 -399721190#0 -1006579594 -4211799#3 -4211799#0 16501526 246728788 399721189#0 1194733359#0 221985595 30600052 30600053 30600063 37342133#0 30601708 494750094#0 494750090 1353842002 1353842000"/>
    </vehicle>
    <vehicle id="bus4" type="bus_bus" depart="152.60" departLane="best" departSpeed="max">
        <route edges="327435333#0 -347978817#1 347978818#0 508980686 370782965#0 1193607531 -1237028607#5 -1237028607#4 -1237028607#1 -5204112#3 22789120#0 22789120#2 22789120#3 -99005149#1 -99005150 -87574797#1 -399721190#0 -1006579594 -4211799#3 -4211799#0 16501526 246728788 399721189#0 1194733359#0 221985595 30600052 30600053 30600063 16482390#0 30602247#0 147751296#0 1195361693"/>
    </vehicle>
    <vehicle id="bus6" type="bus_bus" depart="228.90" departLane="best" departSpeed="max">
        <route edges="-47903725#1 -23301324#2 30602218 124268096 124267487#0 246728786#0 30600063 37342133#0 30601708 38583775 16501614 38583768 16482099#0 1194733360 399721192#0 4211799#0 4211799#1 1006579594 399721190#0 399721190#1 99005150 99005149#0 -22789120#4 -22789120#2 -22789120#1 5204112#0 1237028607#0 1237028607#2 1237028607#5 1193607532 5211618#0 370782964#0 347978817#0 12359963 12360012#0 -235223939"/>
    </vehicle>
    <vehicle id="bus7" type="bus_bus" depart="267.05" departLane="best" departSpeed="max">
        <route edges="781314576 -23301324#2 30602218 124268096 124267487#0 246728786#0 30600063 37342133#0 30601708 38583775 16501614 38583768 16482099#0 1194733360 399721192#0 4211799#0 4211799#1 1006579594 399721190#0 -629608002 -30091020#2 -43078525#0"/>
    </vehicle>
    <vehicle id="bus8" type="bus_bus" depart="305.20" departLane="best">
        <route edges="-221985592 16501584#0 221985593 30601708 38583775 16501614 38583768 16482099#0 1194733360 399721192#0 4211799#0 4211799#1 1006579594 399721190#0 399721190#1 99005150 99005149#0 -22789120#4 -22789120#2 -22789118#3 -22789107#1 -22789107#0"/>
    </vehicle>
    <vehicle id="bus9" type="bus_bus" depart="343.35" departLane="best">
        <route edges="508980686 370782965#0 1193607531 -1237028607#5 -1237028607#4 -1237028607#1 -5204112#3 22789120#0 22789120#2 22789120#3 -99005149#1 -99005150 -87574797#1 -399721190#0 -1006579594 -4211799#3 -4211799#0 16501526 246728788 399721189#0 1194733359#0 221985595 30600052 30600053 30600063 16482390#0 30602247#0 147751296#0 1195361693 1195361692 1195361691 -1195361691 -1195361692 -1195361693 -221985592 16501584#0 221985593"/>
    </vehicle>
    <vehicle id="bus11" type="bus_bus" depart="419.64" departLane="best">
        <route edges="-17097985#7 -17097985#5 -17097985#0 -5204112#3 22789120#0 22789120#2 22789120#3 -99005149#1 -99005150 -87574797#1 -399721190#0 -1006579594 -4211799#3 -16485101#1 -30488404#2 -30488404#0"/>
    </vehicle>
    <vehicle id="bus14" type="bus_bus" depart="534.09" departLane="best">
        <route edges="-23301324#2 30602218 124268096 124267487#0 246728786#0 30600063 37342133#0 30601708 38583775 16501614 38583768 16482099#0 1194733360 399721192#0 4211799#0 4211799#1 1006579594 399721190#0 399721190#1 99005150 99005149#0 -22789120#4 -22789120#2 -22789120#1 5204112#0 1237028607#0 1237028607#2 1237028607#5 1193607532 5211618#0 370782964#0 347978817#0 12359963 12360012#0 12360012#2 -30918468#1 225557576"/>
    </vehicle>
    <vehicle id="bus15" type="bus_bus" depart="572.24" departLane="best" departSpeed="max">
        <route edges="-22789096#1 -22789095#8 -1237028607#1 -5204112#3 22789120#0 22789120#2 22789120#3 -99005149#1 -99005150 -87574797#1 -399721190#0 -1006579594 -4211799#3 -4211799#0 16501526 246728788 399721189#0 1194733359#0 221985595 30600052 30600053 30600063 37342133#0 30601708 494750094#0 6638469#0 6638469#3"/>
    </vehicle>
    <vehicle id="bus16" type="bus_bus" depart="610.39" departLane="best" departSpeed="max">
        <route edges="914122032#0 914122032#3 6639007#0 41669141#0 1101512474#0 38583768 16482099#0 1194733360 399721192#0 4211799#0 4211799#1 1006579594 399721190#0 399721190#1 99005150 99005149#0 -22789120#4 -22789120#2 -22789120#1 5204112#0 17097985#0 17097985#1 22789088#0 22789089"/>
    </vehicle>
    <vehicle id="bus19" type="bus_bus" depart="724.84" departLane="best">
        <route edges="399721190#0 399721190#1 99005150 99005149#0 -22789120#4 -22789120#2 -22789120#1 5204112#0 1237028607#0 1237028607#2 1237028607#5 1193607532 5211618#0 370782964#0 347978817#0 12359963 12360012#0 -30923892 -30923864#0"/>
    </vehicle>
    <vehicle id="bus20" type="bus_bus" depart="762.99" departLane="best" departSpeed="max">
        <route edges="-241990562#2 -6638467 -1195361692 -1195361693 -221985592 16501584#0 221985593 30601708 38583775 16501614 38583768 16482099#0 1194733360 399721192#0 4211799#0 4211799#1 1006579594 399721190#0 399721190#1 99005150 99005149#0 -22789120#4 -22789120#2 -22789120#1 5204112#0 1237028607#0 1237028607#2 14331947#0 16478150#0 16478163 636593558"/>
    </vehicle>
    <vehicle id="bus21" type="bus_bus" depart="801.14" departLane="best" departSpeed="max">
        <route edges="235216375 -30885195#0 -16454589#0 -12359896 -347978816#1 4213806#0 370782965#0 1193607531 -1237028607#5 -1237028607#4 -1237028607#1 -5204112#3 22789120#0 22789120#2 22789120#3 -99005149#1 -99005150 -87574797#1 -399721190#0 -1006579594 -4211799#3 -4211799#0 16501526 246728788 399721189#0 1194733359#0 221985595 30600052 30600053 30600063 16482390#0 12356645#0 12356645#0-AddedOffRampEdge 12356645#2 23301324#0 -781314576"/>
    </vehicle>
    <vehicle id="bus22" type="bus_bus" depart="839.29" departLane="best">
        <route edges="221985593 30601708 38583775 16501614 38583768 16482099#0 1194733360 399721192#0 4211799#0 4211799#1 1006579594 399721190#0 399721190#1 99005150 99005149#0 -22789120#4 -22789120#2 -22789120#1 5204112#0 1237028607#0 1237028607#2 1237028607#5 1193607532 5211618#0 590746240#0 -556952616 22789101 437451415#0"/>
    </vehicle>
    <vehicle id="bus23" type="bus_bus" depart="877.44" departLane="best" departSpeed="max">
        <route edges="-99005149#4 -99005149#1 -99005150 -87574797#1 -399721190#0 -1006579594 -4211799#3 -4211799#0 16501526 246728788 399721189#0 1194733359#0 221985595 30600052 30600053 30600063 37342133#0 30601708 494750094#0 6638469#0 6638469#3 -29419486#2"/>
    </vehicle>
    <vehicle id="bus24" type="bus_bus" depart="915.59" departLane="best" departSpeed="max">
        <route edges="30923864#0 30923892 -12360012#0 -16455034#2 -347978817#1 347978818#0 508980686 370782965#0 1193607531 -1237028607#5 -1237028607#4 -1237028607#1 -5204112#3 22789120#0 22789120#2 22789120#3 -99005149#1 -99005150"/>
    </vehicle>
    <vehicle id="bus25" type="bus_bus" depart="953.74" departLane="best" departSpeed="max">
        <route edges="79852088 30488404#1 16485101#0 4211799#1 1006579594 399721190#0 399721190#1 99005150 99005149#0 -22789120#4 -22789120#2 -22789120#1 5204112#0 1237028607#0 1237028607#2 1237028607#5 1193607532 5211618#0 347978815 370782963 347978816#0 347978816#2"/>
    </vehicle>
    <vehicle id="bus26" type="bus_bus" depart="991.89" departLane="best" departSpeed="max">
        <route edges="-1195361691 -1195361692 -1195361693 -221985592 16501584#0 221985593 30601708 38583775 16501614 38583768 16482099#0 1194733360 399721192#0 4211799#0 4211799#1 1006579594 399721190#0 399721190#1 99005150 99005149#0 -22789120#4 -30797789 243280102#1"/>
    </vehicle>
    <vehicle id="bus27" type="bus_bus" depart="1030.04" departLane="best" departSpeed="max">
        <route edges="241990562#0 241990562#1 -6638467 -1195361692 -1195361693 -221985592 16501584#0 221985593 30601708 38583775 16501614 38583768 16482099#0 1194733360 399721192#0 4211799#0 4211799#1 1006579594 399721190#0 399721190#1 99005150 99005149#0 -22789120#4 -22789120#2 -22789120#1 5204112#0 1237028607#0 1237028607#2 1237028607#5 1193607532 5211618#0 370782964#0 347978817#0 12359963 16455034#3"/>
    </vehicle>
    <vehicle id="bus28" type="bus_bus" depart="1068.19" departLane="best">
        <route edges="30602218 124268096 124267487#0 246728786#0 30600063 37342133#0 30601708 38583775 16501614 38583768 16482099#0 1194733360 399721192#0 4211799#0 4211799#1 1006579594 399721190#0 399721190#1 99005150 99005149#0 -22789120#4 -22789120#2 -22789120#1 5204112#0 1237028607#0 1237028607#2 1237028607#5 1193607532 5211618#0 370782964#0 347978817#0 12359963 16455034#3"/>
    </vehicle>
    <vehicle id="bus29" type="bus_bus" depart="1106.33" departLane="best" departSpeed="max">
        <route edges="30918468#0 30918468#1 -12360012#3 -12360012#0 -16455034#2 -347978817#1 347978818#0 508980686 370782965#0 1193607531 -1237028607#5 -1237028607#4 -1237028607#1 -5204112#3 22789120#0 22789120#2 22789120#3 -99005149#1 -99005150 -87574797#1 -399721190#0 -1006579594 -4211799#3 -4211799#0 16501526 246728788 399721189#0 1194733359#0 221985595 30600052 30600053 30600063 16482390#0 30602247#0 147751296#0"/>
    </vehicle>
    <vehicle id="bus30" type="bus_bus" depart="1144.48" departLane="best" departSpeed="max">
        <route edges="43032789 -17097985#5 -17097985#0 -5204112#3 22789120#0 22789120#2 22789120#3 -99005149#1 -99005150 -87574797#1 -399721190#0 -1006579594 -4211799#3 -4211799#0 16501526 246728788 399721189#0 1194733359#0 221985595 30600052 30600053 30600063 16482390#0 30602247#0 147751296#0 1195361693 1195361692 6638467"/>
    </vehicle>
    <vehicle id="bus32" type="bus_bus" depart="1220.78" departLane="best">
        <route edges="914122032#3 6639007#0 41669141#0 1101512474#0 38583768 16482099#0 1194733360 399721192#0 4211799#0 4211799#1 1006579594 399721190#0 399721190#1 99005150 99005149#0 -22789120#4 -22789120#2 -22789120#1 5204112#0 1237028607#0 22789095#0"/>
    </vehicle>
    <vehicle id="bus33" type="bus_bus" depart="1258.93" departLane="best" departSpeed="max">
        <route edges="-22789082#2 -17097985#7 -17097985#5 -17097985#0 -5204112#3 22789120#0 22789120#2 22789120#3 -99005149#1 -99005150 -87574797#1 -399721190#0 -1006579594 -4211799#3 -16485101#1 -30488404#2 -30488404#0"/>
    </vehicle>
    <vehicle id="bus34" type="bus_bus" depart="1297.08" departLane="best" departSpeed="max">
        <route edges="-47903725#1 -23301324#2 30602218 124268096 124267487#0 246728786#0 30600063 37342133#0 30601708 38583775 16501614 38583768 16482099#0 1194733360 399721192#0 4211799#0 4211799#1 1006579594 399721190#0 399721190#1 99005150 99005149#0 -22789120#4 -22789120#2 -22789120#1 5204112#0 17097985#0 17097985#1 17097985#7"/>
    </vehicle>
    <vehicle id="bus35" type="bus_bus" depart="1335.23" departLane="best" departSpeed="max">
        <route edges="-169031299#1 914122032#3 6639007#0 41669141#0 1101512474#0 38583768 16482099#0 1194733360 399721192#0 4211799#0 4211799#1 1006579594 399721190#0 399721190#1 99005150 99005149#0 -22789120#4 -22789120#2 -22789120#1 5204112#0 17097985#0 17097985#1 17097985#7 22789082#0"/>
    </vehicle>
    <vehicle id="bus36" type="bus_bus" depart="1373.38" departLane="best">
        <route edges="29419412#0 854563520 399721190#0 399721190#1 99005150 99005149#0 -22789120#4 -22789120#2 -22789120#1 5204112#0 1237028607#0 1237028607#2 1237028607#5 1193607532 5211618#0 590746240#0 -556952616 22789101 437451415#0"/>
    </vehicle>
    <vehicle id="bus42" type="bus_bus" depart="1602.28" departLane="best" departSpeed="max">
        <route edges="914122032#0 914122032#3 6639007#0 41669141#0 1101512474#0 38583768 16482099#0 1194733360 399721192#0 4211799#0 4211799#1 1006579594 399721190#0 399721190#1 99005150 99005149#0 -22789120#4 -22789120#2 -22789118#3 -22789107#1 -22789107#0"/>
    </vehicle>
    <vehicle id="bus43" type="bus_bus" depart="1640.43" departLane="best">
        <route edges="399721192#0 4211799#0 4211799#1 1006579594 399721190#0 399721190#1 99005150 99005149#0 -22789120#4 -22789120#2 -22789120#1 5204112#0 1237028607#0 1237028607#2 1237028607#5 1193607532 5211618#0 370782964#0 347978817#0 12359963 12360012#0 12360012#2 -30918468#1 -30918468#0"/>
    </vehicle>
    <vehicle id="bus45" type="bus_bus" depart="1716.73" departLane="best">
        <route edges="30602218 124268096 124267487#0 246728786#0 30600063 37342133#0 30601708 38583775 16501614 38583768 16482099#0 1194733360 399721192#0 4211799#0 4211799#1 1006579594 399721190#0 399721190#1 99005150 99005149#0 -22789120#4 -22789120#2 -22789120#1 5204112#0 1237028607#0 1237028607#2 1237028607#5 1193607532 5211618#0 347978815"/>
    </vehicle>
    <vehicle id="bus46" type="bus_bus" depart="1754.88" departLane="best">
        <route edges="1194733359#0 221985595 30600052 30600053 30600063 37342133#0 30601708 38583775 16501614 38583768 16482099#0 1194733360 399721192#0 4211799#0 4211799#1 1006579594 399721190#0 399721190#1 99005150 99005149#0 -22789120#4 -22789120#2 -22789120#1 5204112#0 1237028607#0 1237028607#2 1237028607#5 1193607532 5211618#0 347978815 370782963 347978816#0 347978816#2"/>
    </vehicle>
    <vehicle id="bus47" type="bus_bus" depart="1793.03" departLane="best">
        <route edges="99005150 99005149#0 -22789120#4 -22789120#2 -22789120#1 5204112#0 1237028607#0 1237028607#2 1237028607#5 1193607532 5211618#0 370782964#0 347978817#0 327435334#0"/>
    </vehicle>
    <vehicle id="bus48" type="bus_bus" depart="1831.17" departLane="best" departSpeed="max">
        <route edges="79852088 30488404#1 16485101#0 4211799#1 1006579594 399721190#0 399721190#1 99005150 99005149#0 -22789120#4 -22789120#2 -22789120#1 5204112#0"/>
    </vehicle>
    <vehicle id="bus49" type="bus_bus" depart="1869.32" departLane="best">
        <route edges="-1237028607#4 -1237028607#1 -5204112#3 22789120#0 22789120#2 22789120#3 -99005149#1 -99005150 -87574797#1 -399721190#0 -1006579594 -4211799#3 -4211799#0 16501526 246728788 399721189#0 1194733359#0 221985595 30600052 30600053 30600063 37342133#0 30601708 494750094#0 6638469#0 6638469#3 -29419486#2"/>
    </vehicle>
    <vehicle id="bus50" type="bus_bus" depart="1907.47" departLane="best" departSpeed="max">
        <route edges="781314576 -23301324#2 30602218 124268096 124267487#0 246728786#0 30600063 37342133#0 30601708 38583775 16501614 38583768 16482099#0 1194733360 399721192#0 4211799#0 4211799#1 1006579594 399721190#0 399721190#1 99005150 99005149#0 99005149#2"/>
    </vehicle>
    <vehicle id="bus52" type="bus_bus" depart="1983.77" departLane="best" departSpeed="max">
        <route edges="-22789095#9 -22789095#8 -1237028607#1 -5204112#3 22789120#0 22789120#2 22789120#3 -99005149#1 -99005150 -87574797#1 -399721190#0 105532961 -29419412#1 16481038 41669141#0 6638536"/>
    </vehicle>
</routes>
