<?xml version="1.0" encoding="UTF-8"?>

<!-- generated on 2025-04-21 15:43:51 by Eclipse SUMO duarouter Version 1.22.0
<duarouterConfiguration xmlns:xsi="http://www.w3.org/2001/XMLSchema-instance" xsi:noNamespaceSchemaLocation="http://sumo.dlr.de/xsd/duarouterConfiguration.xsd">

    <input>
        <net-file value="cleaned.net.xml"/>
        <route-files value="osm.passenger.trips.xml"/>
    </input>

    <output>
        <output-file value="osm.cleaned.passenger.rou.xml"/>
    </output>

    <report>
        <ignore-errors value="true"/>
    </report>

</duarouterConfiguration>
-->

<routes xmlns:xsi="http://www.w3.org/2001/XMLSchema-instance" xsi:noNamespaceSchemaLocation="http://sumo.dlr.de/xsd/routes_file.xsd">
    <vType id="veh_passenger" vClass="passenger"/>
    <vehicle id="veh0" type="veh_passenger" depart="0.00" departLane="best" departSpeed="max">
        <route edges="235223939 -12360012#0 -16455034#2 -347978817#1 347978818#0 508980686 370782965#0 1193607531 -1237028607#5 -1237028607#4 -1237028607#1 17097985#0 -1237028605#6"/>
    </vehicle>
    <vehicle id="veh1" type="veh_passenger" depart="3.81" departLane="best">
        <route edges="4211799#0 4211799#1 1006579594 399721190#0 399721190#1 99005150 99005149#0 -22789120#4 -22789120#2 -22789120#1 5204112#0 1237028607#0 1237028607#2 1237028607#5 1193607532 5211618#0 370782964#0 347978817#0 12359963 12360012#0 12360012#2 -30918468#1 -30918468#0"/>
    </vehicle>
    <vehicle id="veh2" type="veh_passenger" depart="7.63" departLane="best" departSpeed="max">
        <route edges="30918468#0 30918468#1 -12360012#3 -12360012#0 -16455034#2 -347978817#1 347978818#0 508980686 370782965#0 1193607531 -1237028607#5 -1237028607#4 -1237028607#1 -5204112#3 22789120#0 22789120#2 22789120#3 -99005149#1 -99005150 -87574797#1 -399721190#0 -1006579594 -4211799#3 -4211799#0 16501526 246728788 399721189#0 1194733359#0 221985595 30600052 30600053 30600063 16482390#0 12356645#0 12356645#0-AddedOffRampEdge 12356645#2 23301324#0"/>
    </vehicle>
    <vehicle id="veh3" type="veh_passenger" depart="11.44" departLane="best" departSpeed="max">
        <route edges="443562321 -435145408 347978814 347978815 508980686 370782965#0 1193607531 -1237028607#5 -1237028607#4 -1237028607#1 -5204112#3 22789120#0 -22789118#3 -22789107#1 -22789107#0"/>
    </vehicle>
    <vehicle id="veh4" type="veh_passenger" depart="15.26" departLane="best">
        <route edges="12356645#0 12356645#0-AddedOffRampEdge 124268098 124268096 124267487#0 246728786#0 30600063 37342133#0 30601708 38583775 16501614 38583768 16482099#0 1194733360 399721192#0 4211799#0 4211799#1 1006579594 399721190#0 399721190#1 99005150 99005149#0 -22789120#4 -22789120#2 -22789120#1 5204112#0 1237028607#0 1237028607#2"/>
    </vehicle>
    <vehicle id="veh5" type="veh_passenger" depart="19.07" departLane="best">
        <route edges="30797789 -22789120#2 -22789120#1 5204112#0 1237028607#0 1237028607#2 1237028607#5 1193607532 5211618#0 347978815 370782963 347978816#0 12359896 16454589#0 16454589#1"/>
    </vehicle>
    <vehicle id="veh6" type="veh_passenger" depart="22.89" departLane="best">
        <route edges="-1237028607#1 -5204112#3 22789120#0 22789120#2 22789120#3 -99005149#1 -99005150 -87574797#1 -399721190#0 -1006579594 -4211799#3 -16485101#1 -30488404#2 -30488404#0"/>
    </vehicle>
    <vehicle id="veh7" type="veh_passenger" depart="26.70" departLane="best">
        <route edges="-30885195#0 -16454589#0 -12359896 -347978816#1 4213806#0 370782965#0 1193607531 -1237028607#5 -1237028607#4 -1237028607#1 -5204112#3 22789120#0 22789120#2 22789120#3 -99005149#1 -99005150 -87574797#1 -399721190#0 -1006579594 -4211799#3 -4211799#0 16501526 246728788 399721189#0 1194733359#0 221985595"/>
    </vehicle>
    <vehicle id="veh9" type="veh_passenger" depart="34.33" departLane="best" departSpeed="max">
        <route edges="914122032#0 914122032#3 6639007#0 41669141#0 1101512474#0 38583768 30601699#0 30600052 30600053 30600063 16482390#0 30602247#0 147751296#0 1195361693 1195361692 6638467 -241990562#1 -6638464"/>
    </vehicle>
    <vehicle id="veh10" type="veh_passenger" depart="38.15" departLane="best" departSpeed="max">
        <route edges="-225557576 30918468#1 -12360012#3 -12360012#0 -16455034#2 -347978817#1 347978818#0 508980686 370782965#0 1193607531 -1237028607#5 -1237028607#4 -1237028607#1 -5204112#3 22789120#0 -22789118#3 -22789118#2"/>
    </vehicle>
    <vehicle id="veh11" type="veh_passenger" depart="41.96" departLane="best">
        <route edges="4211799#1 1006579594 399721190#0 399721190#1 99005150 99005149#0 -22789120#4 -22789120#2 -22789120#1 5204112#0 1237028607#0 1237028607#2 1237028607#5 1193607532 5211618#0 370782964#0 347978817#0 12359963 12360012#0 12360012#2 -30918468#1 225557576"/>
    </vehicle>
    <vehicle id="veh14" type="veh_passenger" depart="53.41" departLane="best">
        <route edges="399721190#1 99005150 99005149#0 -22789120#4 -22789120#2 -22789120#1 5204112#0 17097985#0 17097985#1 17097985#7 22789082#0"/>
    </vehicle>
    <vehicle id="veh15" type="veh_passenger" depart="57.22" departLane="best" departSpeed="max">
        <route edges="30488404#0 30488404#1 16485101#0 4211799#1 1006579594 399721190#0 399721190#1 99005150 99005149#0 -22789120#4 -22789120#2 -22789120#1 5204112#0 1237028607#0 1237028607#2 1237028607#5 1193607532 5211618#0 347978815 370782963 347978816#0 12359896 16454589#0"/>
    </vehicle>
    <vehicle id="veh16" type="veh_passenger" depart="61.04" departLane="best" departSpeed="max">
        <route edges="-30885195#1 -30885195#0 -16454589#0 -12359896 -347978816#1 4213806#0 370782965#0 1193607531 -1237028607#5 -1237028607#4 -1237028607#1 -5204112#3 22789120#0 22789120#2 22789120#3 -99005149#1 -99005150 -87574797#1 -629608002 -30091020#2 -43078525#0"/>
    </vehicle>
    <vehicle id="veh17" type="veh_passenger" depart="64.85" departLane="best" departSpeed="max">
        <route edges="-17097985#9 -17097985#7 -17097985#5 -17097985#0 1237028607#0 1237028607#2 1237028607#5 1193607532 5211618#0 370782964#0 347978817#0 12359963 12360012#0 -30923892 -30923864#0"/>
    </vehicle>
    <vehicle id="veh18" type="veh_passenger" depart="68.67" departLane="best" departSpeed="max">
        <route edges="-225557577 -12360012#3 -12360012#0 -16455034#2 -347978817#1 347978818#0 508980686 370782965#0 1193607531 -1237028607#5 -1237028607#4 -1237028607#1 17097985#0 17097985#1 -43032789"/>
    </vehicle>
    <vehicle id="veh19" type="veh_passenger" depart="72.48" departLane="best" departSpeed="max">
        <route edges="235223939 -12360012#0 -16455034#2 -347978817#1 347978818#0 508980686 370782965#0 1193607531 -1237028607#5 -1237028607#4 -1237028607#1 -5204112#3 22789120#0 22789120#2 22789120#3 -99005149#1 -99005150 -87574797#1 -399721190#0 -1006579594 -4211799#3 -16485101#1 -30488404#2 -79852088"/>
    </vehicle>
    <vehicle id="veh20" type="veh_passenger" depart="76.30" departLane="best" departSpeed="max">
        <route edges="-347978816#3 -347978816#1 4213806#0 370782965#0 1193607531 -1237028607#5 -1237028607#4 -1237028607#1 -5204112#3 22789120#0 22789120#2 22789120#3 -99005149#1 -99005150 -87574797#1 -399721190#0 105532961 -29419412#1 16481038 41669141#0 6638536"/>
    </vehicle>
    <vehicle id="veh21" type="veh_passenger" depart="80.11" departLane="best" departSpeed="max">
        <route edges="241990562#0 241990562#1 -6638467 -1195361692 -1195361693 -221985592 16501584#0 221985593 30601708 38583775 16501614 38583768 16482099#0 1194733360 399721192#0 4211799#0 4211799#1 1006579594 399721190#0 399721190#1 99005150 99005149#0 -22789120#4 -22789120#2 -22789120#1 5204112#0 17097985#0 17097985#1 17097985#7 22789082#0"/>
    </vehicle>
    <vehicle id="veh23" type="veh_passenger" depart="87.74" departLane="best">
        <route edges="914122032#3 6639007#0 41669141#0 1101512474#0 38583768 16482099#0 1194733360 399721192#0 4211799#0 4211799#1 1006579594 399721190#0 399721190#1 99005150 99005149#0 -22789120#4 -22789120#2 -22789120#1 5204112#0 1237028607#0 22789095#0 22789095#9"/>
    </vehicle>
    <vehicle id="veh24" type="veh_passenger" depart="91.56" departLane="best">
        <route edges="4211799#0 4211799#1 1006579594 399721190#0 399721190#1 99005150 99005149#0 -22789120#4 -22789120#2 -22789120#1 5204112#0 1237028607#0 1237028607#2 1237028607#5 1193607532 5211618#0 370782964#0 347978817#0 12359963 12360012#0 12360012#2 30918468#2"/>
    </vehicle>
    <vehicle id="veh25" type="veh_passenger" depart="95.37" departLane="best" departSpeed="max">
        <route edges="124268096 124267487#0 246728786#0 30600063 37342133#0 30601708 38583775 16501614 38583768 16482099#0 1194733360 399721192#0 4211799#0"/>
    </vehicle>
    <vehicle id="veh27" type="veh_passenger" depart="103.00" departLane="best" departSpeed="max">
        <route edges="6638464 241990562#1 -6638467 -1195361692 -1195361693 -221985592 16501584#0 221985593 30601708 38583775 16501614 38583768 16482099#0 1194733360 399721192#0 4211799#0 4211799#1 1006579594 399721190#0 399721190#1 99005150 99005149#0 -22789120#4 -22789120#2 -22789120#1 5204112#0 1237028607#0 1237028607#2 1237028607#5 1193607532 5211618#0 370782964#0 347978817#0 12359963"/>
    </vehicle>
    <vehicle id="veh29" type="veh_passenger" depart="110.63" departLane="best">
        <route edges="221985593 30601708 38583775 16501614 38583768 16482099#0 1194733360 399721192#0 4211799#0 4211799#1 1006579594 399721190#0"/>
    </vehicle>
    <vehicle id="veh30" type="veh_passenger" depart="114.45" departLane="best" departSpeed="max">
        <route edges="22789107#0 22789107#1 22789118#3 22789120#2 22789120#3 -99005149#1 -99005150 -87574797#1 -399721190#0 -1006579594 -4211799#3 -4211799#0 16501526 246728788 399721189#0 1194733359#0 221985595 30600052 30600053 30600063 16482390#0 12356645#0 12356645#0-AddedOffRampEdge 12356645#2 23301324#0 47903725#0"/>
    </vehicle>
    <vehicle id="veh32" type="veh_passenger" depart="122.08" departLane="best">
        <route edges="99005150 99005149#0 -22789120#4 -22789120#2 -22789120#1 5204112#0 1237028607#0 1237028607#2 1237028607#5 1193607532 5211618#0 370782964#0 347978817#0 12359963 16455034#3"/>
    </vehicle>
    <vehicle id="veh33" type="veh_passenger" depart="125.89" departLane="best">
        <route edges="508980686 370782965#0 1193607531 -1237028607#5 -1237028607#4 -1237028607#1 -5204112#3 22789120#0 22789120#2 22789120#3 -99005149#1 -99005150 -87574797#1 -399721190#0 -1006579594 -4211799#3 -4211799#0 16501526 246728788 399721189#0 1194733359#0 221985595 30600052 30600053 30600063 16482390#0 30602247#0 147751296#0 1195361693 1195361692 1195361691"/>
    </vehicle>
    <vehicle id="veh34" type="veh_passenger" depart="129.71" departLane="best">
        <route edges="-99005150 -87574797#1 -399721190#0 -1006579594 -4211799#3 -4211799#0 16501526 246728788 399721189#0 1194733359#0 221985595 30600052 30600053 30600063 16482390#0"/>
    </vehicle>
    <vehicle id="veh35" type="veh_passenger" depart="133.52" departLane="best" departSpeed="max">
        <route edges="914122032#0 914122032#3 6639007#0 41669141#0 1101512474#0 38583768 16482099#0 1194733360 399721192#0"/>
    </vehicle>
    <vehicle id="veh36" type="veh_passenger" depart="137.34" departLane="best" departSpeed="max">
        <route edges="-1195361691 -1195361692 -1195361693 -221985592 16501584#0 221985593 30601708 38583775 16501614 38583768 30601699#0 30600052 4350856#0 30600072"/>
    </vehicle>
    <vehicle id="veh37" type="veh_passenger" depart="141.15" departLane="best" departSpeed="max">
        <route edges="-347978816#3 -347978816#1 4213806#0 370782965#0 1193607531 -1237028607#5 -1237028607#4 22789095#0 22789095#9"/>
    </vehicle>
    <vehicle id="veh38" type="veh_passenger" depart="144.97" departLane="best" departSpeed="max">
        <route edges="-22789082#2 -17097985#7 -17097985#5 -17097985#0 -5204112#3 22789120#0 22789120#2 22789120#3 -99005149#1 -99005150 -87574797#1 -399721190#0 -1006579594 -4211799#3 -4211799#0 16501526 246728788 399721189#0 1194733359#0 221985595 30600052 30600053 30600063 16482390#0 30602247#0 147751296#0 1195361693"/>
    </vehicle>
    <vehicle id="veh39" type="veh_passenger" depart="148.78" departLane="best">
        <route edges="-1237028607#5 -1237028607#4 -1237028607#1 -5204112#3 22789120#0 22789120#2 22789120#3 -99005149#1 -99005150 -87574797#1 -399721190#0 -1006579594 -4211799#3 -4211799#0 16501526 246728788 399721189#0 1194733359#0 221985595 30600052 30600053 30600063 37342133#0 30601708 494750094#0 494750090 1353842002 841037863 30602199#0 92880857"/>
    </vehicle>
    <vehicle id="veh40" type="veh_passenger" depart="152.60" departLane="best" departSpeed="max">
        <route edges="443562321 -435145408 347978814 347978815 508980686 370782965#0 1193607531 -1237028607#5 -1237028607#4 -1237028607#1 -5204112#3 22789120#0 22789120#2 22789120#3 -99005149#1 -99005150 -87574797#1 -399721190#0"/>
    </vehicle>
    <vehicle id="veh41" type="veh_passenger" depart="156.41" departLane="best" departSpeed="max">
        <route edges="6638464 241990562#1 -6638467 -1195361692 -1195361693 -221985592 16501584#0 221985593 30601708 38583775 16501614 38583768 16482099#0 1194733360 399721192#0 4211799#0"/>
    </vehicle>
    <vehicle id="veh42" type="veh_passenger" depart="160.23" departLane="best" departSpeed="max">
        <route edges="-47903725#1 -23301324#2 30602218 124268096 124267487#0 246728786#0 30600063 37342133#0 30601708 38583775 16501614 38583768 16482099#0 1194733360 399721192#0 4211799#0 4211799#1 1006579594 399721190#0 399721190#1 99005150 99005149#0 -22789120#4 -22789120#2 -22789120#1 5204112#0 1237028607#0 22789095#0 22789095#9"/>
    </vehicle>
    <vehicle id="veh44" type="veh_passenger" depart="167.86" departLane="best" departSpeed="max">
        <route edges="327435333#0 -347978817#1 347978818#0 508980686 370782965#0 1193607531 -1237028607#5 -1237028607#4 -1237028607#1 -5204112#3 22789120#0 22789120#2 22789120#3 -99005149#1 -99005150 -87574797#1 -399721190#0 -1006579594 -4211799#3 -4211799#0 16501526 246728788 399721189#0 1194733359#0 221985595 30600052 30600053 30600063 16482390#0"/>
    </vehicle>
    <vehicle id="veh45" type="veh_passenger" depart="171.67" departLane="best">
        <route edges="1006579594 399721190#0 399721190#1 99005150 99005149#0 -22789120#4 -22789120#2 -22789120#1 5204112#0 1237028607#0 1237028607#2 1237028607#5 1193607532 5211618#0 590746240#0 -556952616"/>
    </vehicle>
    <vehicle id="veh46" type="veh_passenger" depart="175.49" departLane="best" departSpeed="max">
        <route edges="443562321 -435145408 347978814 347978815 370782963 347978816#0 347978816#2"/>
    </vehicle>
    <vehicle id="veh47" type="veh_passenger" depart="179.30" departLane="best" departSpeed="max">
        <route edges="124268096 124267487#0 246728786#0 30600063 37342133#0 30601708 38583775 16501614 38583768 16482099#0 1194733360 399721192#0 4211799#0 4211799#1 1006579594 399721190#0 399721190#1 99005150 99005149#0 -22789120#4 -22789120#2 -22789120#1 5204112#0 17097985#0 17097985#1"/>
    </vehicle>
    <vehicle id="veh49" type="veh_passenger" depart="186.93" departLane="best" departSpeed="max">
        <route edges="-225557576 30918468#1 -12360012#3 -12360012#0 -16455034#2 -347978817#1 347978818#0 508980686 370782965#0 1193607531 -1237028607#5 -1237028607#4 -1237028607#1 -5204112#3 22789120#0 22789120#2 22789120#3 -99005149#1 -99005150 -87574797#1 -399721190#0 -1006579594 -4211799#3 -4211799#0 16501526 246728788 399721189#0 1194733359#0 221985595 30600052 4350856#0 14331400"/>
    </vehicle>
    <vehicle id="veh50" type="veh_passenger" depart="190.75" departLane="best">
        <route edges="-17097985#7 -17097985#5 -17097985#0 1237028607#0 1237028607#2 1237028607#5 1193607532 5211618#0 347978815 370782963 347978816#0 12359896 16454589#0 16454589#1 30885195#1"/>
    </vehicle>
    <vehicle id="veh52" type="veh_passenger" depart="198.38" departLane="best" departSpeed="max">
        <route edges="-347978816#3 -347978816#1 4213806#0 370782965#0 1193607531 -1237028607#5 -1237028607#4 -1237028607#1 -5204112#3 22789120#0 22789120#2 22789120#3 -99005149#1 -99005150 -87574797#1 -399721190#0 -1006579594 -4211799#3 -4211799#0"/>
    </vehicle>
    <vehicle id="veh53" type="veh_passenger" depart="202.19" departLane="best">
        <route edges="12356645#0 12356645#0-AddedOffRampEdge 124268098 124268096 124267487#0 246728786#0 30600063 37342133#0 30601708 38583775 16501614 38583768 16482099#0 1194733360 399721192#0 4211799#0 4211799#1 1006579594 399721190#0 399721190#1 99005150 99005149#0 -22789120#4 -22789120#2 -22789120#1 5204112#0 1237028607#0 1237028607#2 1237028607#5 1193607532 5211618#0 347978815 370782963 347978816#0 12359896 16454589#0 16454589#1"/>
    </vehicle>
    <vehicle id="veh54" type="veh_passenger" depart="206.01" departLane="best" departSpeed="max">
        <route edges="209216639 22789107#1 22789118#3 22789120#2 22789120#3 -99005149#1 -99005150 -87574797#1 -399721190#0 -1006579594 -4211799#3 -4211799#0 16501526 246728788 399721189#0 1194733359#0 221985595 30600052 4350856#0 30600072"/>
    </vehicle>
    <vehicle id="veh56" type="veh_passenger" depart="213.64" departLane="best">
        <route edges="99005149#0 -22789120#4 -22789120#2 -22789120#1 5204112#0 1237028607#0 22789095#0 22789096#0"/>
    </vehicle>
    <vehicle id="veh57" type="veh_passenger" depart="217.45" departLane="best">
        <route edges="-12360012#3 -12360012#0 -16455034#2 -347978817#1 347978818#0 508980686 370782965#0 1193607531 -1237028607#5 14331947#0 16478150#0"/>
    </vehicle>
    <vehicle id="veh58" type="veh_passenger" depart="221.27" departLane="best" departSpeed="max">
        <route edges="-22789089 -22789088#2 -17097985#5 -17097985#0 1237028607#0 1237028607#2 1237028607#5 1193607532 5211618#0 370782964#0 347978817#0 12359963 12360012#0 12360012#2 -30918468#1"/>
    </vehicle>
    <vehicle id="veh60" type="veh_passenger" depart="228.90" departLane="best">
        <route edges="-30488404#4 16485101#0 4211799#1 1006579594 399721190#0 399721190#1 99005150 99005149#0 -22789120#4 -22789120#2 -22789120#1 5204112#0 1237028607#0 1237028607#2 1237028607#5 1193607532 5211618#0 347978815 370782963 347978816#0 12359896 16454589#0 16454589#1 -235216375"/>
    </vehicle>
    <vehicle id="veh61" type="veh_passenger" depart="232.71" departLane="best" departSpeed="max">
        <route edges="781314576 -23301324#2 30602218 124268096 124267487#0 246728786#0 30600063 37342133#0 30601708 38583775 16501614 38583768 16482099#0 1194733360 399721192#0 4211799#0 4211799#1 1006579594 399721190#0 399721190#1 99005150 99005149#0 -22789120#4 -22789120#2 -22789120#1 5204112#0 17097985#0 17097985#1 17097985#7"/>
    </vehicle>
    <vehicle id="veh62" type="veh_passenger" depart="236.53" departLane="best" departSpeed="max">
        <route edges="-225557577 -12360012#3 -12360012#0 -16455034#2 -347978817#1 347978818#0 508980686 370782965#0 1193607531 -1237028607#5 -1237028607#4 -1237028607#1 -5204112#3 22789120#0 22789120#2 22789120#3 -99005149#1 -99005150 -87574797#1 -399721190#0 -1006579594 -4211799#3 -4211799#0 16501526 246728788 399721189#0 1194733359#0 221985595 30600052 30600053 30600063 16482390#0 30602247#0 147751296#0 1195361693 1195361692"/>
    </vehicle>
    <vehicle id="veh63" type="veh_passenger" depart="240.34" departLane="best">
        <route edges="12356645#0 12356645#0-AddedOffRampEdge 124268098 124268096 124267487#0 246728786#0 30600063 37342133#0 30601708 38583775 16501614 38583768 16482099#0 1194733360 399721192#0 4211799#0 4211799#1 1006579594 399721190#0 399721190#1 99005150 99005149#0 -22789120#4 -22789120#2 -22789120#1 5204112#0 1237028607#0 1237028607#2"/>
    </vehicle>
    <vehicle id="veh64" type="veh_passenger" depart="244.16" departLane="best" departSpeed="max">
        <route edges="914122032#0 914122032#3 6639007#0 41669141#0 1101512474#0 38583768 16482099#0 1194733360 399721192#0 4211799#0 4211799#1 1006579594 399721190#0 399721190#1 99005150 99005149#0 -22789120#4 -22789120#2 -22789118#3 -22789118#2"/>
    </vehicle>
    <vehicle id="veh65" type="veh_passenger" depart="247.97" departLane="best">
        <route edges="1193607531 -1237028607#5 -1237028607#4 -1237028607#1 -5204112#3 22789120#0 22789120#2 22789120#3 -99005149#1 -99005150 -87574797#1 -399721190#0 -1006579594 -4211799#3 -4211799#0 16501526 246728788 399721189#0 1194733359#0 221985595 30600052 30600053 30600063 16482390#0 30602247#0 147751296#0 1195361693 1195361692 6638467"/>
    </vehicle>
    <vehicle id="veh66" type="veh_passenger" depart="251.79" departLane="best" departSpeed="max">
        <route edges="43032789 -17097985#5 -17097985#0 1237028607#0 1237028607#2 1237028607#5 1193607532 5211618#0 347978815 370782963 347978816#0"/>
    </vehicle>
    <vehicle id="veh67" type="veh_passenger" depart="255.60" departLane="best" departSpeed="max">
        <route edges="-243280102#1 30797789 22789120#3 -99005149#1 -99005150 -87574797#1 -399721190#0 -1006579594 -4211799#3 -4211799#0 16501526 246728788 399721189#0 1194733359#0 221985595 30600052 30600053 30600063 16482390#0 12356645#0"/>
    </vehicle>
    <vehicle id="veh68" type="veh_passenger" depart="259.42" departLane="best">
        <route edges="-1195361693 -221985592 16501584#0 221985593 30601708 38583775 16501614 38583768 16482099#0 1194733360 399721192#0 4211799#0 4211799#1 1006579594 399721190#0 399721190#1 99005150 99005149#0 -22789120#4 -22789120#2 -22789120#1 5204112#0 17097985#0 17097985#1 -43032789"/>
    </vehicle>
    <vehicle id="veh70" type="veh_passenger" depart="267.05" departLane="best" departSpeed="max">
        <route edges="1237028605#0 -17097985#0 -5204112#3 22789120#0 22789120#2 22789120#3 -99005149#1 -99005150 -87574797#1 -399721190#0 -1006579594 -4211799#3 -4211799#0 16501526"/>
    </vehicle>
    <vehicle id="veh71" type="veh_passenger" depart="270.86" departLane="best">
        <route edges="99005150 99005149#0 -22789120#4 -22789120#2 -22789120#1 5204112#0 1237028607#0 1237028607#2 1237028607#5 1193607532 5211618#0 370782964#0 347978817#0"/>
    </vehicle>
    <vehicle id="veh72" type="veh_passenger" depart="274.68" departLane="best" departSpeed="max">
        <route edges="914122032#0 914122032#3 6639007#0 41669141#0 1101512474#0 38583768 30601699#0 30600052 30600053 30600063 16482390#0 30602247#0 147751296#0 1195361693 1195361692 6638467"/>
    </vehicle>
    <vehicle id="veh74" type="veh_passenger" depart="282.31" departLane="best">
        <route edges="16481038 41669141#0 1101512474#0 38583768 16482099#0 1194733360 399721192#0 4211799#0 4211799#1 1006579594 399721190#0 399721190#1 99005150 99005149#0 -22789120#4 -22789120#2 -22789120#1 5204112#0 1237028607#0 1237028607#2 1237028607#5 1193607532 5211618#0 370782964#0 347978817#0 12359963 12360012#0 12360012#2 -30918468#1 -30918468#0"/>
    </vehicle>
    <vehicle id="veh76" type="veh_passenger" depart="289.94" departLane="best">
        <route edges="124267487#0 246728786#0 30600063 16482390#0 30602247#0 147751296#0 1195361693 1195361692 1195361691"/>
    </vehicle>
    <vehicle id="veh77" type="veh_passenger" depart="293.75" departLane="best" departSpeed="max">
        <route edges="914122032#0 914122032#3 6639007#0 41669141#0 1101512474#0 38583768 16482099#0 1194733360 399721192#0 4211799#0 4211799#1 1006579594 399721190#0 399721190#1 99005150 99005149#0 99005149#2"/>
    </vehicle>
    <vehicle id="veh78" type="veh_passenger" depart="297.57" departLane="best" departSpeed="max">
        <route edges="220701949#0 -16478163 -16478150#2 -14331947#8 -1237028607#4 -1237028607#1 -5204112#3 22789120#0 22789120#2 22789120#3 -99005149#1 -99005150 -87574797#1 -399721190#0 -1006579594 -4211799#3 -16485101#1 30488404#3"/>
    </vehicle>
    <vehicle id="veh79" type="veh_passenger" depart="301.38" departLane="best" departSpeed="max">
        <route edges="914122032#0 914122032#3 6639007#0 41669141#0 1101512474#0 38583768 16482099#0 1194733360 399721192#0 4211799#0 4211799#1 1006579594 399721190#0 399721190#1 99005150 99005149#0 -22789120#4 -22789120#2 -22789120#1 5204112#0 17097985#0 17097985#1 17097985#7 17097985#8"/>
    </vehicle>
    <vehicle id="veh80" type="veh_passenger" depart="305.20" departLane="best" departSpeed="max">
        <route edges="209216639 22789107#1 22789118#3 22789120#2 22789120#3 -99005149#1 -99005150 -87574797#1 -399721190#0 -1006579594 -4211799#3 -4211799#0 16501526 246728788 399721189#0 1194733359#0 221985595 30600052 30600053 30600063 37342133#0 30601708 494750094#0 494750090 1353842002 841037863 30602199#0"/>
    </vehicle>
    <vehicle id="veh81" type="veh_passenger" depart="309.01" departLane="best" departSpeed="max">
        <route edges="-169031299#1 914122032#3 6639007#0 41669141#0 1101512474#0 38583768 30601699#0 30600052 30600053 30600063 16482390#0 30602247#0 147751296#0 1195361693 1195361692 1195361691 -1195361691 -1195361692 -1195361693 -221985592 16501584#0 221985593"/>
    </vehicle>
    <vehicle id="veh82" type="veh_passenger" depart="312.83" departLane="best">
        <route edges="16501584#0 221985593 30601708 38583775 16501614 38583768 16482099#0 1194733360 399721192#0 4211799#0 4211799#1 1006579594 399721190#0"/>
    </vehicle>
    <vehicle id="veh83" type="veh_passenger" depart="316.64" departLane="best">
        <route edges="22789120#0 22789120#2 22789120#3 -99005149#1 -99005150 -87574797#1 -399721190#0 -1006579594 -4211799#3 -4211799#0 16501526 246728788 399721189#0 1194733359#0 221985595 30600052 30600053 30600063 37342133#0 30601708 494750094#0 494750090 1353842002 841037863 30602199#0 92880857"/>
    </vehicle>
    <vehicle id="veh84" type="veh_passenger" depart="320.46" departLane="best" departSpeed="max">
        <route edges="-17097985#9 -17097985#7 -17097985#5 -17097985#0 -5204112#3 22789120#0 22789120#2 22789120#3 -99005149#1 -99005150 -87574797#1 -399721190#0 -1006579594 -4211799#3 -4211799#0 16501526 246728788 399721189#0 1194733359#0 221985595 30600052 30600053 30600063 37342133#0 30601708 494750094#0 6638469#0 6638469#3 -29419486#2"/>
    </vehicle>
    <vehicle id="veh88" type="veh_passenger" depart="335.72" departLane="best" departSpeed="max">
        <route edges="22789118#0 22789118#3 -22789120#1 5204112#0 17097985#0 17097985#1 22789088#0"/>
    </vehicle>
    <vehicle id="veh91" type="veh_passenger" depart="347.16" departLane="best" departSpeed="max">
        <route edges="243280102#0 30797789 -22789120#2 -22789120#1 5204112#0 1237028607#0 1237028607#2 1237028607#5 1193607532 5211618#0 590746240#0 -556952616 -443562321"/>
    </vehicle>
    <vehicle id="veh92" type="veh_passenger" depart="350.98" departLane="best" departSpeed="max">
        <route edges="-17097985#9 -17097985#7 -17097985#5 -17097985#0 1237028607#0 1237028607#2 1237028607#5 1193607532 5211618#0 370782964#0 347978817#0 12359963"/>
    </vehicle>
    <vehicle id="veh93" type="veh_passenger" depart="354.79" departLane="best" departSpeed="max">
        <route edges="-17097985#9 -17097985#7 -17097985#5 -17097985#0 1237028607#0 1237028607#2 1237028607#5 1193607532 5211618#0 370782964#0 347978817#0 12359963 12360012#0 12360012#2 -30918468#1 -30918468#0"/>
    </vehicle>
    <vehicle id="veh94" type="veh_passenger" depart="358.61" departLane="best" departSpeed="max">
        <route edges="-347978816#3 -347978816#1 4213806#0 370782965#0 1193607531 -1237028607#5 -1237028607#4 -1237028607#1 -5204112#3 22789120#0 22789120#2 22789120#3 -99005149#1 -99005150 -87574797#1 -399721190#0 105532961 -29419412#1 16481038 41669141#0 6638536"/>
    </vehicle>
    <vehicle id="veh95" type="veh_passenger" depart="362.42" departLane="best">
        <route edges="-99005150 -87574797#1 -399721190#0 -1006579594 -4211799#3 -4211799#0 16501526 246728788 399721189#0 1194733359#0 221985595 30600052 30600053 30600063 16482390#0 30602247#0 147751296#0 1195361693 1195361692 6638467 -241990562#1"/>
    </vehicle>
    <vehicle id="veh97" type="veh_passenger" depart="370.05" departLane="best" departSpeed="max">
        <route edges="243280102#0 30797789 22789120#3 -99005149#1 -99005150 -87574797#1 -399721190#0 105532961 -29419412#1 16481038 41669141#0 6638536"/>
    </vehicle>
    <vehicle id="veh101" type="veh_passenger" depart="385.31" departLane="best" departSpeed="max">
        <route edges="235223939 -12360012#0 -16455034#2 -347978817#1 347978818#0 508980686 370782965#0 1193607531 -1237028607#5 -1237028607#4 -1237028607#1 -5204112#3 22789120#0 22789120#2 22789120#3 -99005149#1 -99005150 -87574797#1 -399721190#0"/>
    </vehicle>
    <vehicle id="veh102" type="veh_passenger" depart="389.12" departLane="best">
        <route edges="16482099#0 1194733360 399721192#0 4211799#0 4211799#1 1006579594 399721190#0 399721190#1 99005150 99005149#0 -22789120#4 -22789120#2 -22789120#1 5204112#0 1237028607#0 1237028607#2 1237028607#5 1193607532 5211618#0 347978815"/>
    </vehicle>
    <vehicle id="veh103" type="veh_passenger" depart="392.94" departLane="best">
        <route edges="4211799#1 1006579594 399721190#0 399721190#1 99005150 99005149#0 -22789120#4 -22789120#2 -22789118#3 -22789107#1"/>
    </vehicle>
    <vehicle id="veh104" type="veh_passenger" depart="396.75" departLane="best">
        <route edges="12356645#0 12356645#0-AddedOffRampEdge 124268098 124268096 124267487#0 246728786#0 30600063 37342133#0 30601708 38583775 16501614 38583768 16482099#0 1194733360 399721192#0 4211799#0 4211799#1 1006579594 399721190#0 399721190#1 99005150 99005149#0 -22789120#4 -22789120#2 -22789120#1 5204112#0 17097985#0 17097985#1 -43032789"/>
    </vehicle>
    <vehicle id="veh105" type="veh_passenger" depart="400.57" departLane="best">
        <route edges="1006579594 399721190#0 399721190#1 99005150 99005149#0 -22789120#4 -22789120#2 -22789120#1 5204112#0 1237028607#0 1237028607#2 1237028607#5 1193607532 5211618#0 370782964#0 347978817#0 12359963 12360012#0 12360012#2 30918468#2"/>
    </vehicle>
    <vehicle id="veh108" type="veh_passenger" depart="412.01" departLane="best" departSpeed="max">